<?xml version="1.0" encoding="UTF-8"?>

<!-- generated on Fri Nov 22 19:36:25 2013 by SUMO duarouter Version 0.17.1
<?xml version="1.0" encoding="UTF-8"?>

<configuration xmlns:xsi="http://www.w3.org/2001/XMLSchema-instance" xsi:noNamespaceSchemaLocation="http://sumo.sf.net/xsd/duarouterConfiguration.xsd">

    <input>
        <net-file value="test.net.xml"/>
        <trip-files value="test.flow.xml"/>
    </input>

    <output>
        <output-file value="test.rou.xml"/>
    </output>

</configuration>
-->

<routes xmlns:xsi="http://www.w3.org/2001/XMLSchema-instance" xsi:noNamespaceSchemaLocation="http://sumo.sf.net/xsd/routes_file.xsd">
    <vType id="Tesla" accel="0.8" decel="4.5" sigma="0.5" length="5" maxSpeed="70"/>
    <vehicle id="0.0" type="Tesla" depart="0.00">
        <route edges="90088565#0 90088565#1 90088565#2 90088565#3 90088569 -60767675#4 -60767675#3 -60767675#2 -60767675#1 -60767675#0 30968190#0 30968190#1 30968190#2 30968190#3 8965859#0 8965859#1 8965859#2 8965859#3 8965859#4 30906781#0 30906781#1 30906781#2 30906781#3 30906781#4 30906781#5 30906781#6 30906781#7 30860729 30860731#5 30860731#6 30860728#0 30860728#1"/>
    </vehicle>
    <vehicle id="1.0" type="Tesla" depart="0.00">
        <route edges="30860753#0 30860753#1 30860731#1 30860731#2 30860731#3 30860730 -30906781#7 -30906781#6 -30906781#5 -30906781#4 -30906781#3 -30906781#2 -30906781#1 -30906781#0 30906778 231369969 188696880#0 188696880#1 188696880#2 188696880#3 60767660#0 60767660#1 60767675#0 60767675#1 60767675#2 60767675#3 60767675#4 90088572#0 90088572#1 90088573#0 90088573#1 90088573#2 90088573#3"/>
    </vehicle>
    <vehicle id="2.0" type="Tesla" depart="0.00">
        <route edges="244107342#1 244107342#2 244107342#3 244107342#4 244107342#5 244107342#6 244107342#7 244107342#8 244107342#9 244107342#10 244107342#11 244107342#12 244107342#13 244107342#14 244107342#15 244107342#16"/>
    </vehicle>
    <vehicle id="3.0" type="Tesla" depart="0.00">
        <route edges="91928200#7 91928200#8 91928200#9 188696885#0 188696885#1"/>
    </vehicle>
    <vehicle id="4.0" type="Tesla" depart="0.00">
        <route edges="-8969746#0 -240577405#2 -240577405#1 -240577405#0 -149436519 149436522 188696880#0 188696880#1 188696880#2 188696880#3 60767660#0 60767660#1 60767675#0 60767675#1 60767675#2 60767675#3 60767675#4 90088572#0 90088572#1 90088573#0 90088573#1 90088573#2 90088573#3"/>
    </vehicle>
    <vehicle id="5.0" type="Tesla" depart="0.00">
        <route edges="90088565#0 90088565#1 90088565#2 90088565#3 90088569 -60767675#4 -60767675#3 -60767675#2 -60767675#1 -60767675#0 30968190#0 30968190#1 30968190#2 60767674 244107342#4 244107342#5 244107342#6 244107342#7 244107342#8 244107342#9 244107342#10 244107342#11 244107342#12 244107342#13 244107342#14 244107342#15 244107342#16"/>
    </vehicle>
    <vehicle id="6.0" type="Tesla" depart="0.00">
        <route edges="30860753#0 30860753#1 30860731#1 30860731#2 30860731#3 30860730 -30906781#7 -30906781#6 -30906781#5 -30906781#4 -30906781#3 -30906781#2 -30906781#1 -30906781#0 30906778 231369969 188696880#0 188696880#1 188696880#2 188696880#3 188696885#0 188696885#1"/>
    </vehicle>
    <vehicle id="3.1" type="Tesla" depart="0.60">
        <route edges="91928200#7 91928200#8 91928200#9 188696885#0 188696885#1"/>
    </vehicle>
    <vehicle id="3.2" type="Tesla" depart="1.20">
        <route edges="91928200#7 91928200#8 91928200#9 188696885#0 188696885#1"/>
    </vehicle>
    <vehicle id="3.3" type="Tesla" depart="1.80">
        <route edges="91928200#7 91928200#8 91928200#9 188696885#0 188696885#1"/>
    </vehicle>
    <vehicle id="3.4" type="Tesla" depart="2.40">
        <route edges="91928200#7 91928200#8 91928200#9 188696885#0 188696885#1"/>
    </vehicle>
    <vehicle id="3.5" type="Tesla" depart="3.00">
        <route edges="91928200#7 91928200#8 91928200#9 188696885#0 188696885#1"/>
    </vehicle>
    <vehicle id="3.6" type="Tesla" depart="3.60">
        <route edges="91928200#7 91928200#8 91928200#9 188696885#0 188696885#1"/>
    </vehicle>
    <vehicle id="3.7" type="Tesla" depart="4.20">
        <route edges="91928200#7 91928200#8 91928200#9 188696885#0 188696885#1"/>
    </vehicle>
    <vehicle id="3.8" type="Tesla" depart="4.80">
        <route edges="91928200#7 91928200#8 91928200#9 188696885#0 188696885#1"/>
    </vehicle>
    <vehicle id="3.9" type="Tesla" depart="5.40">
        <route edges="91928200#7 91928200#8 91928200#9 188696885#0 188696885#1"/>
    </vehicle>
    <vehicle id="0.1" type="Tesla" depart="6.00">
        <route edges="90088565#0 90088565#1 90088565#2 90088565#3 90088569 -60767675#4 -60767675#3 -60767675#2 -60767675#1 -60767675#0 30968190#0 30968190#1 30968190#2 30968190#3 8965859#0 8965859#1 8965859#2 8965859#3 8965859#4 30906781#0 30906781#1 30906781#2 30906781#3 30906781#4 30906781#5 30906781#6 30906781#7 30860729 30860731#5 30860731#6 30860728#0 30860728#1"/>
    </vehicle>
    <vehicle id="3.10" type="Tesla" depart="6.00">
        <route edges="91928200#7 91928200#8 91928200#9 188696885#0 188696885#1"/>
    </vehicle>
    <vehicle id="3.11" type="Tesla" depart="6.60">
        <route edges="91928200#7 91928200#8 91928200#9 188696885#0 188696885#1"/>
    </vehicle>
    <vehicle id="3.12" type="Tesla" depart="7.20">
        <route edges="91928200#7 91928200#8 91928200#9 188696885#0 188696885#1"/>
    </vehicle>
    <vehicle id="3.13" type="Tesla" depart="7.80">
        <route edges="91928200#7 91928200#8 91928200#9 188696885#0 188696885#1"/>
    </vehicle>
    <vehicle id="3.14" type="Tesla" depart="8.40">
        <route edges="91928200#7 91928200#8 91928200#9 188696885#0 188696885#1"/>
    </vehicle>
    <vehicle id="3.15" type="Tesla" depart="9.00">
        <route edges="91928200#7 91928200#8 91928200#9 188696885#0 188696885#1"/>
    </vehicle>
    <vehicle id="3.16" type="Tesla" depart="9.60">
        <route edges="91928200#7 91928200#8 91928200#9 188696885#0 188696885#1"/>
    </vehicle>
    <vehicle id="3.17" type="Tesla" depart="10.20">
        <route edges="91928200#7 91928200#8 91928200#9 188696885#0 188696885#1"/>
    </vehicle>
    <vehicle id="3.18" type="Tesla" depart="10.80">
        <route edges="91928200#7 91928200#8 91928200#9 188696885#0 188696885#1"/>
    </vehicle>
    <vehicle id="3.19" type="Tesla" depart="11.40">
        <route edges="91928200#7 91928200#8 91928200#9 188696885#0 188696885#1"/>
    </vehicle>
    <vehicle id="0.2" type="Tesla" depart="12.00">
        <route edges="90088565#0 90088565#1 90088565#2 90088565#3 90088569 -60767675#4 -60767675#3 -60767675#2 -60767675#1 -60767675#0 30968190#0 30968190#1 30968190#2 30968190#3 8965859#0 8965859#1 8965859#2 8965859#3 8965859#4 30906781#0 30906781#1 30906781#2 30906781#3 30906781#4 30906781#5 30906781#6 30906781#7 30860729 30860731#5 30860731#6 30860728#0 30860728#1"/>
    </vehicle>
    <vehicle id="3.20" type="Tesla" depart="12.00">
        <route edges="91928200#7 91928200#8 91928200#9 188696885#0 188696885#1"/>
    </vehicle>
    <vehicle id="3.21" type="Tesla" depart="12.60">
        <route edges="91928200#7 91928200#8 91928200#9 188696885#0 188696885#1"/>
    </vehicle>
    <vehicle id="3.22" type="Tesla" depart="13.20">
        <route edges="91928200#7 91928200#8 91928200#9 188696885#0 188696885#1"/>
    </vehicle>
    <vehicle id="3.23" type="Tesla" depart="13.80">
        <route edges="91928200#7 91928200#8 91928200#9 188696885#0 188696885#1"/>
    </vehicle>
    <vehicle id="3.24" type="Tesla" depart="14.40">
        <route edges="91928200#7 91928200#8 91928200#9 188696885#0 188696885#1"/>
    </vehicle>
    <vehicle id="3.25" type="Tesla" depart="15.00">
        <route edges="91928200#7 91928200#8 91928200#9 188696885#0 188696885#1"/>
    </vehicle>
    <vehicle id="3.26" type="Tesla" depart="15.60">
        <route edges="91928200#7 91928200#8 91928200#9 188696885#0 188696885#1"/>
    </vehicle>
    <vehicle id="3.27" type="Tesla" depart="16.20">
        <route edges="91928200#7 91928200#8 91928200#9 188696885#0 188696885#1"/>
    </vehicle>
    <vehicle id="3.28" type="Tesla" depart="16.80">
        <route edges="91928200#7 91928200#8 91928200#9 188696885#0 188696885#1"/>
    </vehicle>
    <vehicle id="3.29" type="Tesla" depart="17.40">
        <route edges="91928200#7 91928200#8 91928200#9 188696885#0 188696885#1"/>
    </vehicle>
    <vehicle id="0.3" type="Tesla" depart="18.00">
        <route edges="90088565#0 90088565#1 90088565#2 90088565#3 90088569 -60767675#4 -60767675#3 -60767675#2 -60767675#1 -60767675#0 30968190#0 30968190#1 30968190#2 30968190#3 8965859#0 8965859#1 8965859#2 8965859#3 8965859#4 30906781#0 30906781#1 30906781#2 30906781#3 30906781#4 30906781#5 30906781#6 30906781#7 30860729 30860731#5 30860731#6 30860728#0 30860728#1"/>
    </vehicle>
    <vehicle id="3.30" type="Tesla" depart="18.00">
        <route edges="91928200#7 91928200#8 91928200#9 188696885#0 188696885#1"/>
    </vehicle>
    <vehicle id="3.31" type="Tesla" depart="18.60">
        <route edges="91928200#7 91928200#8 91928200#9 188696885#0 188696885#1"/>
    </vehicle>
    <vehicle id="3.32" type="Tesla" depart="19.20">
        <route edges="91928200#7 91928200#8 91928200#9 188696885#0 188696885#1"/>
    </vehicle>
    <vehicle id="3.33" type="Tesla" depart="19.80">
        <route edges="91928200#7 91928200#8 91928200#9 188696885#0 188696885#1"/>
    </vehicle>
    <vehicle id="3.34" type="Tesla" depart="20.40">
        <route edges="91928200#7 91928200#8 91928200#9 188696885#0 188696885#1"/>
    </vehicle>
    <vehicle id="3.35" type="Tesla" depart="21.00">
        <route edges="91928200#7 91928200#8 91928200#9 188696885#0 188696885#1"/>
    </vehicle>
    <vehicle id="2.1" type="Tesla" depart="21.43">
        <route edges="244107342#1 244107342#2 244107342#3 244107342#4 244107342#5 244107342#6 244107342#7 244107342#8 244107342#9 244107342#10 244107342#11 244107342#12 244107342#13 244107342#14 244107342#15 244107342#16"/>
    </vehicle>
    <vehicle id="3.36" type="Tesla" depart="21.60">
        <route edges="91928200#7 91928200#8 91928200#9 188696885#0 188696885#1"/>
    </vehicle>
    <vehicle id="3.37" type="Tesla" depart="22.20">
        <route edges="91928200#7 91928200#8 91928200#9 188696885#0 188696885#1"/>
    </vehicle>
    <vehicle id="3.38" type="Tesla" depart="22.80">
        <route edges="91928200#7 91928200#8 91928200#9 188696885#0 188696885#1"/>
    </vehicle>
    <vehicle id="3.39" type="Tesla" depart="23.40">
        <route edges="91928200#7 91928200#8 91928200#9 188696885#0 188696885#1"/>
    </vehicle>
    <vehicle id="0.4" type="Tesla" depart="24.00">
        <route edges="90088565#0 90088565#1 90088565#2 90088565#3 90088569 -60767675#4 -60767675#3 -60767675#2 -60767675#1 -60767675#0 30968190#0 30968190#1 30968190#2 30968190#3 8965859#0 8965859#1 8965859#2 8965859#3 8965859#4 30906781#0 30906781#1 30906781#2 30906781#3 30906781#4 30906781#5 30906781#6 30906781#7 30860729 30860731#5 30860731#6 30860728#0 30860728#1"/>
    </vehicle>
    <vehicle id="3.40" type="Tesla" depart="24.00">
        <route edges="91928200#7 91928200#8 91928200#9 188696885#0 188696885#1"/>
    </vehicle>
    <vehicle id="3.41" type="Tesla" depart="24.60">
        <route edges="91928200#7 91928200#8 91928200#9 188696885#0 188696885#1"/>
    </vehicle>
    <vehicle id="3.42" type="Tesla" depart="25.20">
        <route edges="91928200#7 91928200#8 91928200#9 188696885#0 188696885#1"/>
    </vehicle>
    <vehicle id="3.43" type="Tesla" depart="25.80">
        <route edges="91928200#7 91928200#8 91928200#9 188696885#0 188696885#1"/>
    </vehicle>
    <vehicle id="3.44" type="Tesla" depart="26.40">
        <route edges="91928200#7 91928200#8 91928200#9 188696885#0 188696885#1"/>
    </vehicle>
    <vehicle id="3.45" type="Tesla" depart="27.00">
        <route edges="91928200#7 91928200#8 91928200#9 188696885#0 188696885#1"/>
    </vehicle>
    <vehicle id="3.46" type="Tesla" depart="27.60">
        <route edges="91928200#7 91928200#8 91928200#9 188696885#0 188696885#1"/>
    </vehicle>
    <vehicle id="3.47" type="Tesla" depart="28.20">
        <route edges="91928200#7 91928200#8 91928200#9 188696885#0 188696885#1"/>
    </vehicle>
    <vehicle id="3.48" type="Tesla" depart="28.80">
        <route edges="91928200#7 91928200#8 91928200#9 188696885#0 188696885#1"/>
    </vehicle>
    <vehicle id="3.49" type="Tesla" depart="29.40">
        <route edges="91928200#7 91928200#8 91928200#9 188696885#0 188696885#1"/>
    </vehicle>
    <vehicle id="0.5" type="Tesla" depart="30.00">
        <route edges="90088565#0 90088565#1 90088565#2 90088565#3 90088569 -60767675#4 -60767675#3 -60767675#2 -60767675#1 -60767675#0 30968190#0 30968190#1 30968190#2 30968190#3 8965859#0 8965859#1 8965859#2 8965859#3 8965859#4 30906781#0 30906781#1 30906781#2 30906781#3 30906781#4 30906781#5 30906781#6 30906781#7 30860729 30860731#5 30860731#6 30860728#0 30860728#1"/>
    </vehicle>
    <vehicle id="1.1" type="Tesla" depart="30.00">
        <route edges="30860753#0 30860753#1 30860731#1 30860731#2 30860731#3 30860730 -30906781#7 -30906781#6 -30906781#5 -30906781#4 -30906781#3 -30906781#2 -30906781#1 -30906781#0 30906778 231369969 188696880#0 188696880#1 188696880#2 188696880#3 60767660#0 60767660#1 60767675#0 60767675#1 60767675#2 60767675#3 60767675#4 90088572#0 90088572#1 90088573#0 90088573#1 90088573#2 90088573#3"/>
    </vehicle>
    <vehicle id="0.6" type="Tesla" depart="36.00">
        <route edges="90088565#0 90088565#1 90088565#2 90088565#3 90088569 -60767675#4 -60767675#3 -60767675#2 -60767675#1 -60767675#0 30968190#0 30968190#1 30968190#2 30968190#3 8965859#0 8965859#1 8965859#2 8965859#3 8965859#4 30906781#0 30906781#1 30906781#2 30906781#3 30906781#4 30906781#5 30906781#6 30906781#7 30860729 30860731#5 30860731#6 30860728#0 30860728#1"/>
    </vehicle>
    <vehicle id="0.7" type="Tesla" depart="42.00">
        <route edges="90088565#0 90088565#1 90088565#2 90088565#3 90088569 -60767675#4 -60767675#3 -60767675#2 -60767675#1 -60767675#0 30968190#0 30968190#1 30968190#2 30968190#3 8965859#0 8965859#1 8965859#2 8965859#3 8965859#4 30906781#0 30906781#1 30906781#2 30906781#3 30906781#4 30906781#5 30906781#6 30906781#7 30860729 30860731#5 30860731#6 30860728#0 30860728#1"/>
    </vehicle>
    <vehicle id="2.2" type="Tesla" depart="42.86">
        <route edges="244107342#1 244107342#2 244107342#3 244107342#4 244107342#5 244107342#6 244107342#7 244107342#8 244107342#9 244107342#10 244107342#11 244107342#12 244107342#13 244107342#14 244107342#15 244107342#16"/>
    </vehicle>
    <vehicle id="4.1" type="Tesla" depart="42.86">
        <route edges="-8969746#0 -240577405#2 -240577405#1 -240577405#0 -149436519 149436522 188696880#0 188696880#1 188696880#2 188696880#3 60767660#0 60767660#1 60767675#0 60767675#1 60767675#2 60767675#3 60767675#4 90088572#0 90088572#1 90088573#0 90088573#1 90088573#2 90088573#3"/>
    </vehicle>
    <vehicle id="5.1" type="Tesla" depart="42.86">
        <route edges="90088565#0 90088565#1 90088565#2 90088565#3 90088569 -60767675#4 -60767675#3 -60767675#2 -60767675#1 -60767675#0 30968190#0 30968190#1 30968190#2 60767674 244107342#4 244107342#5 244107342#6 244107342#7 244107342#8 244107342#9 244107342#10 244107342#11 244107342#12 244107342#13 244107342#14 244107342#15 244107342#16"/>
    </vehicle>
    <vehicle id="0.8" type="Tesla" depart="48.00">
        <route edges="90088565#0 90088565#1 90088565#2 90088565#3 90088569 -60767675#4 -60767675#3 -60767675#2 -60767675#1 -60767675#0 30968190#0 30968190#1 30968190#2 30968190#3 8965859#0 8965859#1 8965859#2 8965859#3 8965859#4 30906781#0 30906781#1 30906781#2 30906781#3 30906781#4 30906781#5 30906781#6 30906781#7 30860729 30860731#5 30860731#6 30860728#0 30860728#1"/>
    </vehicle>
    <vehicle id="0.9" type="Tesla" depart="54.00">
        <route edges="90088565#0 90088565#1 90088565#2 90088565#3 90088569 -60767675#4 -60767675#3 -60767675#2 -60767675#1 -60767675#0 30968190#0 30968190#1 30968190#2 30968190#3 8965859#0 8965859#1 8965859#2 8965859#3 8965859#4 30906781#0 30906781#1 30906781#2 30906781#3 30906781#4 30906781#5 30906781#6 30906781#7 30860729 30860731#5 30860731#6 30860728#0 30860728#1"/>
    </vehicle>
    <vehicle id="0.10" type="Tesla" depart="60.00">
        <route edges="90088565#0 90088565#1 90088565#2 90088565#3 90088569 -60767675#4 -60767675#3 -60767675#2 -60767675#1 -60767675#0 30968190#0 30968190#1 30968190#2 30968190#3 8965859#0 8965859#1 8965859#2 8965859#3 8965859#4 30906781#0 30906781#1 30906781#2 30906781#3 30906781#4 30906781#5 30906781#6 30906781#7 30860729 30860731#5 30860731#6 30860728#0 30860728#1"/>
    </vehicle>
    <vehicle id="1.2" type="Tesla" depart="60.00">
        <route edges="30860753#0 30860753#1 30860731#1 30860731#2 30860731#3 30860730 -30906781#7 -30906781#6 -30906781#5 -30906781#4 -30906781#3 -30906781#2 -30906781#1 -30906781#0 30906778 231369969 188696880#0 188696880#1 188696880#2 188696880#3 60767660#0 60767660#1 60767675#0 60767675#1 60767675#2 60767675#3 60767675#4 90088572#0 90088572#1 90088573#0 90088573#1 90088573#2 90088573#3"/>
    </vehicle>
    <vehicle id="6.1" type="Tesla" depart="60.00">
        <route edges="30860753#0 30860753#1 30860731#1 30860731#2 30860731#3 30860730 -30906781#7 -30906781#6 -30906781#5 -30906781#4 -30906781#3 -30906781#2 -30906781#1 -30906781#0 30906778 231369969 188696880#0 188696880#1 188696880#2 188696880#3 188696885#0 188696885#1"/>
    </vehicle>
    <vehicle id="2.3" type="Tesla" depart="64.28">
        <route edges="244107342#1 244107342#2 244107342#3 244107342#4 244107342#5 244107342#6 244107342#7 244107342#8 244107342#9 244107342#10 244107342#11 244107342#12 244107342#13 244107342#14 244107342#15 244107342#16"/>
    </vehicle>
    <vehicle id="0.11" type="Tesla" depart="66.00">
        <route edges="90088565#0 90088565#1 90088565#2 90088565#3 90088569 -60767675#4 -60767675#3 -60767675#2 -60767675#1 -60767675#0 30968190#0 30968190#1 30968190#2 30968190#3 8965859#0 8965859#1 8965859#2 8965859#3 8965859#4 30906781#0 30906781#1 30906781#2 30906781#3 30906781#4 30906781#5 30906781#6 30906781#7 30860729 30860731#5 30860731#6 30860728#0 30860728#1"/>
    </vehicle>
    <vehicle id="0.12" type="Tesla" depart="72.00">
        <route edges="90088565#0 90088565#1 90088565#2 90088565#3 90088569 -60767675#4 -60767675#3 -60767675#2 -60767675#1 -60767675#0 30968190#0 30968190#1 30968190#2 30968190#3 8965859#0 8965859#1 8965859#2 8965859#3 8965859#4 30906781#0 30906781#1 30906781#2 30906781#3 30906781#4 30906781#5 30906781#6 30906781#7 30860729 30860731#5 30860731#6 30860728#0 30860728#1"/>
    </vehicle>
    <vehicle id="0.13" type="Tesla" depart="78.00">
        <route edges="90088565#0 90088565#1 90088565#2 90088565#3 90088569 -60767675#4 -60767675#3 -60767675#2 -60767675#1 -60767675#0 30968190#0 30968190#1 30968190#2 30968190#3 8965859#0 8965859#1 8965859#2 8965859#3 8965859#4 30906781#0 30906781#1 30906781#2 30906781#3 30906781#4 30906781#5 30906781#6 30906781#7 30860729 30860731#5 30860731#6 30860728#0 30860728#1"/>
    </vehicle>
    <vehicle id="0.14" type="Tesla" depart="84.00">
        <route edges="90088565#0 90088565#1 90088565#2 90088565#3 90088569 -60767675#4 -60767675#3 -60767675#2 -60767675#1 -60767675#0 30968190#0 30968190#1 30968190#2 30968190#3 8965859#0 8965859#1 8965859#2 8965859#3 8965859#4 30906781#0 30906781#1 30906781#2 30906781#3 30906781#4 30906781#5 30906781#6 30906781#7 30860729 30860731#5 30860731#6 30860728#0 30860728#1"/>
    </vehicle>
    <vehicle id="2.4" type="Tesla" depart="85.71">
        <route edges="244107342#1 244107342#2 244107342#3 244107342#4 244107342#5 244107342#6 244107342#7 244107342#8 244107342#9 244107342#10 244107342#11 244107342#12 244107342#13 244107342#14 244107342#15 244107342#16"/>
    </vehicle>
    <vehicle id="4.2" type="Tesla" depart="85.71">
        <route edges="-8969746#0 -240577405#2 -240577405#1 -240577405#0 -149436519 149436522 188696880#0 188696880#1 188696880#2 188696880#3 60767660#0 60767660#1 60767675#0 60767675#1 60767675#2 60767675#3 60767675#4 90088572#0 90088572#1 90088573#0 90088573#1 90088573#2 90088573#3"/>
    </vehicle>
    <vehicle id="5.2" type="Tesla" depart="85.71">
        <route edges="90088565#0 90088565#1 90088565#2 90088565#3 90088569 -60767675#4 -60767675#3 -60767675#2 -60767675#1 -60767675#0 30968190#0 30968190#1 30968190#2 60767674 244107342#4 244107342#5 244107342#6 244107342#7 244107342#8 244107342#9 244107342#10 244107342#11 244107342#12 244107342#13 244107342#14 244107342#15 244107342#16"/>
    </vehicle>
    <vehicle id="0.15" type="Tesla" depart="90.00">
        <route edges="90088565#0 90088565#1 90088565#2 90088565#3 90088569 -60767675#4 -60767675#3 -60767675#2 -60767675#1 -60767675#0 30968190#0 30968190#1 30968190#2 30968190#3 8965859#0 8965859#1 8965859#2 8965859#3 8965859#4 30906781#0 30906781#1 30906781#2 30906781#3 30906781#4 30906781#5 30906781#6 30906781#7 30860729 30860731#5 30860731#6 30860728#0 30860728#1"/>
    </vehicle>
    <vehicle id="1.3" type="Tesla" depart="90.00">
        <route edges="30860753#0 30860753#1 30860731#1 30860731#2 30860731#3 30860730 -30906781#7 -30906781#6 -30906781#5 -30906781#4 -30906781#3 -30906781#2 -30906781#1 -30906781#0 30906778 231369969 188696880#0 188696880#1 188696880#2 188696880#3 60767660#0 60767660#1 60767675#0 60767675#1 60767675#2 60767675#3 60767675#4 90088572#0 90088572#1 90088573#0 90088573#1 90088573#2 90088573#3"/>
    </vehicle>
    <vehicle id="0.16" type="Tesla" depart="96.00">
        <route edges="90088565#0 90088565#1 90088565#2 90088565#3 90088569 -60767675#4 -60767675#3 -60767675#2 -60767675#1 -60767675#0 30968190#0 30968190#1 30968190#2 30968190#3 8965859#0 8965859#1 8965859#2 8965859#3 8965859#4 30906781#0 30906781#1 30906781#2 30906781#3 30906781#4 30906781#5 30906781#6 30906781#7 30860729 30860731#5 30860731#6 30860728#0 30860728#1"/>
    </vehicle>
    <vehicle id="0.17" type="Tesla" depart="102.00">
        <route edges="90088565#0 90088565#1 90088565#2 90088565#3 90088569 -60767675#4 -60767675#3 -60767675#2 -60767675#1 -60767675#0 30968190#0 30968190#1 30968190#2 30968190#3 8965859#0 8965859#1 8965859#2 8965859#3 8965859#4 30906781#0 30906781#1 30906781#2 30906781#3 30906781#4 30906781#5 30906781#6 30906781#7 30860729 30860731#5 30860731#6 30860728#0 30860728#1"/>
    </vehicle>
    <vehicle id="2.5" type="Tesla" depart="107.14">
        <route edges="244107342#1 244107342#2 244107342#3 244107342#4 244107342#5 244107342#6 244107342#7 244107342#8 244107342#9 244107342#10 244107342#11 244107342#12 244107342#13 244107342#14 244107342#15 244107342#16"/>
    </vehicle>
    <vehicle id="0.18" type="Tesla" depart="108.00">
        <route edges="90088565#0 90088565#1 90088565#2 90088565#3 90088569 -60767675#4 -60767675#3 -60767675#2 -60767675#1 -60767675#0 30968190#0 30968190#1 30968190#2 30968190#3 8965859#0 8965859#1 8965859#2 8965859#3 8965859#4 30906781#0 30906781#1 30906781#2 30906781#3 30906781#4 30906781#5 30906781#6 30906781#7 30860729 30860731#5 30860731#6 30860728#0 30860728#1"/>
    </vehicle>
    <vehicle id="0.19" type="Tesla" depart="114.00">
        <route edges="90088565#0 90088565#1 90088565#2 90088565#3 90088569 -60767675#4 -60767675#3 -60767675#2 -60767675#1 -60767675#0 30968190#0 30968190#1 30968190#2 30968190#3 8965859#0 8965859#1 8965859#2 8965859#3 8965859#4 30906781#0 30906781#1 30906781#2 30906781#3 30906781#4 30906781#5 30906781#6 30906781#7 30860729 30860731#5 30860731#6 30860728#0 30860728#1"/>
    </vehicle>
    <vehicle id="0.20" type="Tesla" depart="120.00">
        <route edges="90088565#0 90088565#1 90088565#2 90088565#3 90088569 -60767675#4 -60767675#3 -60767675#2 -60767675#1 -60767675#0 30968190#0 30968190#1 30968190#2 30968190#3 8965859#0 8965859#1 8965859#2 8965859#3 8965859#4 30906781#0 30906781#1 30906781#2 30906781#3 30906781#4 30906781#5 30906781#6 30906781#7 30860729 30860731#5 30860731#6 30860728#0 30860728#1"/>
    </vehicle>
    <vehicle id="1.4" type="Tesla" depart="120.00">
        <route edges="30860753#0 30860753#1 30860731#1 30860731#2 30860731#3 30860730 -30906781#7 -30906781#6 -30906781#5 -30906781#4 -30906781#3 -30906781#2 -30906781#1 -30906781#0 30906778 231369969 188696880#0 188696880#1 188696880#2 188696880#3 60767660#0 60767660#1 60767675#0 60767675#1 60767675#2 60767675#3 60767675#4 90088572#0 90088572#1 90088573#0 90088573#1 90088573#2 90088573#3"/>
    </vehicle>
    <vehicle id="6.2" type="Tesla" depart="120.00">
        <route edges="30860753#0 30860753#1 30860731#1 30860731#2 30860731#3 30860730 -30906781#7 -30906781#6 -30906781#5 -30906781#4 -30906781#3 -30906781#2 -30906781#1 -30906781#0 30906778 231369969 188696880#0 188696880#1 188696880#2 188696880#3 188696885#0 188696885#1"/>
    </vehicle>
    <vehicle id="0.21" type="Tesla" depart="126.00">
        <route edges="90088565#0 90088565#1 90088565#2 90088565#3 90088569 -60767675#4 -60767675#3 -60767675#2 -60767675#1 -60767675#0 30968190#0 30968190#1 30968190#2 30968190#3 8965859#0 8965859#1 8965859#2 8965859#3 8965859#4 30906781#0 30906781#1 30906781#2 30906781#3 30906781#4 30906781#5 30906781#6 30906781#7 30860729 30860731#5 30860731#6 30860728#0 30860728#1"/>
    </vehicle>
    <vehicle id="2.6" type="Tesla" depart="128.57">
        <route edges="244107342#1 244107342#2 244107342#3 244107342#4 244107342#5 244107342#6 244107342#7 244107342#8 244107342#9 244107342#10 244107342#11 244107342#12 244107342#13 244107342#14 244107342#15 244107342#16"/>
    </vehicle>
    <vehicle id="4.3" type="Tesla" depart="128.57">
        <route edges="-8969746#0 -240577405#2 -240577405#1 -240577405#0 -149436519 149436522 188696880#0 188696880#1 188696880#2 188696880#3 60767660#0 60767660#1 60767675#0 60767675#1 60767675#2 60767675#3 60767675#4 90088572#0 90088572#1 90088573#0 90088573#1 90088573#2 90088573#3"/>
    </vehicle>
    <vehicle id="5.3" type="Tesla" depart="128.57">
        <route edges="90088565#0 90088565#1 90088565#2 90088565#3 90088569 -60767675#4 -60767675#3 -60767675#2 -60767675#1 -60767675#0 30968190#0 30968190#1 30968190#2 60767674 244107342#4 244107342#5 244107342#6 244107342#7 244107342#8 244107342#9 244107342#10 244107342#11 244107342#12 244107342#13 244107342#14 244107342#15 244107342#16"/>
    </vehicle>
    <vehicle id="0.22" type="Tesla" depart="132.00">
        <route edges="90088565#0 90088565#1 90088565#2 90088565#3 90088569 -60767675#4 -60767675#3 -60767675#2 -60767675#1 -60767675#0 30968190#0 30968190#1 30968190#2 30968190#3 8965859#0 8965859#1 8965859#2 8965859#3 8965859#4 30906781#0 30906781#1 30906781#2 30906781#3 30906781#4 30906781#5 30906781#6 30906781#7 30860729 30860731#5 30860731#6 30860728#0 30860728#1"/>
    </vehicle>
    <vehicle id="0.23" type="Tesla" depart="138.00">
        <route edges="90088565#0 90088565#1 90088565#2 90088565#3 90088569 -60767675#4 -60767675#3 -60767675#2 -60767675#1 -60767675#0 30968190#0 30968190#1 30968190#2 30968190#3 8965859#0 8965859#1 8965859#2 8965859#3 8965859#4 30906781#0 30906781#1 30906781#2 30906781#3 30906781#4 30906781#5 30906781#6 30906781#7 30860729 30860731#5 30860731#6 30860728#0 30860728#1"/>
    </vehicle>
    <vehicle id="0.24" type="Tesla" depart="144.00">
        <route edges="90088565#0 90088565#1 90088565#2 90088565#3 90088569 -60767675#4 -60767675#3 -60767675#2 -60767675#1 -60767675#0 30968190#0 30968190#1 30968190#2 30968190#3 8965859#0 8965859#1 8965859#2 8965859#3 8965859#4 30906781#0 30906781#1 30906781#2 30906781#3 30906781#4 30906781#5 30906781#6 30906781#7 30860729 30860731#5 30860731#6 30860728#0 30860728#1"/>
    </vehicle>
    <vehicle id="2.7" type="Tesla" depart="150.00">
        <route edges="244107342#1 244107342#2 244107342#3 244107342#4 244107342#5 244107342#6 244107342#7 244107342#8 244107342#9 244107342#10 244107342#11 244107342#12 244107342#13 244107342#14 244107342#15 244107342#16"/>
    </vehicle>
    <vehicle id="0.25" type="Tesla" depart="150.00">
        <route edges="90088565#0 90088565#1 90088565#2 90088565#3 90088569 -60767675#4 -60767675#3 -60767675#2 -60767675#1 -60767675#0 30968190#0 30968190#1 30968190#2 30968190#3 8965859#0 8965859#1 8965859#2 8965859#3 8965859#4 30906781#0 30906781#1 30906781#2 30906781#3 30906781#4 30906781#5 30906781#6 30906781#7 30860729 30860731#5 30860731#6 30860728#0 30860728#1"/>
    </vehicle>
    <vehicle id="1.5" type="Tesla" depart="150.00">
        <route edges="30860753#0 30860753#1 30860731#1 30860731#2 30860731#3 30860730 -30906781#7 -30906781#6 -30906781#5 -30906781#4 -30906781#3 -30906781#2 -30906781#1 -30906781#0 30906778 231369969 188696880#0 188696880#1 188696880#2 188696880#3 60767660#0 60767660#1 60767675#0 60767675#1 60767675#2 60767675#3 60767675#4 90088572#0 90088572#1 90088573#0 90088573#1 90088573#2 90088573#3"/>
    </vehicle>
    <vehicle id="0.26" type="Tesla" depart="156.00">
        <route edges="90088565#0 90088565#1 90088565#2 90088565#3 90088569 -60767675#4 -60767675#3 -60767675#2 -60767675#1 -60767675#0 30968190#0 30968190#1 30968190#2 30968190#3 8965859#0 8965859#1 8965859#2 8965859#3 8965859#4 30906781#0 30906781#1 30906781#2 30906781#3 30906781#4 30906781#5 30906781#6 30906781#7 30860729 30860731#5 30860731#6 30860728#0 30860728#1"/>
    </vehicle>
    <vehicle id="0.27" type="Tesla" depart="162.00">
        <route edges="90088565#0 90088565#1 90088565#2 90088565#3 90088569 -60767675#4 -60767675#3 -60767675#2 -60767675#1 -60767675#0 30968190#0 30968190#1 30968190#2 30968190#3 8965859#0 8965859#1 8965859#2 8965859#3 8965859#4 30906781#0 30906781#1 30906781#2 30906781#3 30906781#4 30906781#5 30906781#6 30906781#7 30860729 30860731#5 30860731#6 30860728#0 30860728#1"/>
    </vehicle>
    <vehicle id="0.28" type="Tesla" depart="168.00">