<?xml version="1.0" encoding="UTF-8"?>

<!-- generated on Sat Nov 23 23:08:19 2013 by SUMO duarouter Version 0.17.1
<?xml version="1.0" encoding="UTF-8"?>

<configuration xmlns:xsi="http://www.w3.org/2001/XMLSchema-instance" xsi:noNamespaceSchemaLocation="http://sumo.sf.net/xsd/duarouterConfiguration.xsd">

    <input>
        <net-file value="test.net.xml"/>
        <trip-files value="test.flow.xml"/>
    </input>

    <output>
        <output-file value="test.rou.xml"/>
    </output>

</configuration>
-->

<routes xmlns:xsi="http://www.w3.org/2001/XMLSchema-instance" xsi:noNamespaceSchemaLocation="http://sumo.sf.net/xsd/routes_file.xsd">
    <vehicle id="0.0" depart="0.00">
        <route edges="90088565#0 90088565#1 90088565#2 90088565#3 90088569 -60767675#4 -60767675#3 -60767675#2 -60767675#1 -60767675#0 30968190#0 30968190#1 30968190#2 30968190#3 8965859#0 8965859#1 8965859#2 8965859#3 8965859#4 30906781#0 30906781#1 30906781#2 30906781#3 30906781#4 30906781#5 30906781#6 30906781#7 30860729 30860731#5 30860731#6 30860728#0 30860728#1"/>
    </vehicle>
    <vehicle id="0.1" depart="2.00">
        <route edges="90088565#0 90088565#1 90088565#2 90088565#3 90088569 -60767675#4 -60767675#3 -60767675#2 -60767675#1 -60767675#0 30968190#0 30968190#1 30968190#2 30968190#3 8965859#0 8965859#1 8965859#2 8965859#3 8965859#4 30906781#0 30906781#1 30906781#2 30906781#3 30906781#4 30906781#5 30906781#6 30906781#7 30860729 30860731#5 30860731#6 30860728#0 30860728#1"/>
    </vehicle>
    <vehicle id="0.2" depart="4.00">
        <route edges="90088565#0 90088565#1 90088565#2 90088565#3 90088569 -60767675#4 -60767675#3 -60767675#2 -60767675#1 -60767675#0 30968190#0 30968190#1 30968190#2 30968190#3 8965859#0 8965859#1 8965859#2 8965859#3 8965859#4 30906781#0 30906781#1 30906781#2 30906781#3 30906781#4 30906781#5 30906781#6 30906781#7 30860729 30860731#5 30860731#6 30860728#0 30860728#1"/>
    </vehicle>
    <vehicle id="0.3" depart="6.00">
        <route edges="90088565#0 90088565#1 90088565#2 90088565#3 90088569 -60767675#4 -60767675#3 -60767675#2 -60767675#1 -60767675#0 30968190#0 30968190#1 30968190#2 30968190#3 8965859#0 8965859#1 8965859#2 8965859#3 8965859#4 30906781#0 30906781#1 30906781#2 30906781#3 30906781#4 30906781#5 30906781#6 30906781#7 30860729 30860731#5 30860731#6 30860728#0 30860728#1"/>
    </vehicle>
    <vehicle id="0.4" depart="8.00">
        <route edges="90088565#0 90088565#1 90088565#2 90088565#3 90088569 -60767675#4 -60767675#3 -60767675#2 -60767675#1 -60767675#0 30968190#0 30968190#1 30968190#2 30968190#3 8965859#0 8965859#1 8965859#2 8965859#3 8965859#4 30906781#0 30906781#1 30906781#2 30906781#3 30906781#4 30906781#5 30906781#6 30906781#7 30860729 30860731#5 30860731#6 30860728#0 30860728#1"/>
    </vehicle>
    <vehicle id="0.5" depart="10.00">
        <route edges="90088565#0 90088565#1 90088565#2 90088565#3 90088569 -60767675#4 -60767675#3 -60767675#2 -60767675#1 -60767675#0 30968190#0 30968190#1 30968190#2 30968190#3 8965859#0 8965859#1 8965859#2 8965859#3 8965859#4 30906781#0 30906781#1 30906781#2 30906781#3 30906781#4 30906781#5 30906781#6 30906781#7 30860729 30860731#5 30860731#6 30860728#0 30860728#1"/>
    </vehicle>
    <vehicle id="0.6" depart="12.00">
        <route edges="90088565#0 90088565#1 90088565#2 90088565#3 90088569 -60767675#4 -60767675#3 -60767675#2 -60767675#1 -60767675#0 30968190#0 30968190#1 30968190#2 30968190#3 8965859#0 8965859#1 8965859#2 8965859#3 8965859#4 30906781#0 30906781#1 30906781#2 30906781#3 30906781#4 30906781#5 30906781#6 30906781#7 30860729 30860731#5 30860731#6 30860728#0 30860728#1"/>
    </vehicle>
    <vehicle id="0.7" depart="14.00">
        <route edges="90088565#0 90088565#1 90088565#2 90088565#3 90088569 -60767675#4 -60767675#3 -60767675#2 -60767675#1 -60767675#0 30968190#0 30968190#1 30968190#2 30968190#3 8965859#0 8965859#1 8965859#2 8965859#3 8965859#4 30906781#0 30906781#1 30906781#2 30906781#3 30906781#4 30906781#5 30906781#6 30906781#7 30860729 30860731#5 30860731#6 30860728#0 30860728#1"/>
    </vehicle>
    <vehicle id="0.8" depart="16.00">
        <route edges="90088565#0 90088565#1 90088565#2 90088565#3 90088569 -60767675#4 -60767675#3 -60767675#2 -60767675#1 -60767675#0 30968190#0 30968190#1 30968190#2 30968190#3 8965859#0 8965859#1 8965859#2 8965859#3 8965859#4 30906781#0 30906781#1 30906781#2 30906781#3 30906781#4 30906781#5 30906781#6 30906781#7 30860729 30860731#5 30860731#6 30860728#0 30860728#1"/>
    </vehicle>
    <vehicle id="0.9" depart="18.00">
        <route edges="90088565#0 90088565#1 90088565#2 90088565#3 90088569 -60767675#4 -60767675#3 -60767675#2 -60767675#1 -60767675#0 30968190#0 30968190#1 30968190#2 30968190#3 8965859#0 8965859#1 8965859#2 8965859#3 8965859#4 30906781#0 30906781#1 30906781#2 30906781#3 30906781#4 30906781#5 30906781#6 30906781#7 30860729 30860731#5 30860731#6 30860728#0 30860728#1"/>
    </vehicle>
    <vehicle id="0.10" depart="20.00">
        <route edges="90088565#0 90088565#1 90088565#2 90088565#3 90088569 -60767675#4 -60767675#3 -60767675#2 -60767675#1 -60767675#0 30968190#0 30968190#1 30968190#2 30968190#3 8965859#0 8965859#1 8965859#2 8965859#3 8965859#4 30906781#0 30906781#1 30906781#2 30906781#3 30906781#4 30906781#5 30906781#6 30906781#7 30860729 30860731#5 30860731#6 30860728#0 30860728#1"/>
    </vehicle>
    <vehicle id="0.11" depart="22.00">
        <route edges="90088565#0 90088565#1 90088565#2 90088565#3 90088569 -60767675#4 -60767675#3 -60767675#2 -60767675#1 -60767675#0 30968190#0 30968190#1 30968190#2 30968190#3 8965859#0 8965859#1 8965859#2 8965859#3 8965859#4 30906781#0 30906781#1 30906781#2 30906781#3 30906781#4 30906781#5 30906781#6 30906781#7 30860729 30860731#5 30860731#6 30860728#0 30860728#1"/>
    </vehicle>
    <vehicle id="0.12" depart="24.00">
        <route edges="90088565#0 90088565#1 90088565#2 90088565#3 90088569 -60767675#4 -60767675#3 -60767675#2 -60767675#1 -60767675#0 30968190#0 30968190#1 30968190#2 30968190#3 8965859#0 8965859#1 8965859#2 8965859#3 8965859#4 30906781#0 30906781#1 30906781#2 30906781#3 30906781#4 30906781#5 30906781#6 30906781#7 30860729 30860731#5 30860731#6 30860728#0 30860728#1"/>
    </vehicle>
    <vehicle id="0.13" depart="26.00">
        <route edges="90088565#0 90088565#1 90088565#2 90088565#3 90088569 -60767675#4 -60767675#3 -60767675#2 -60767675#1 -60767675#0 30968190#0 30968190#1 30968190#2 30968190#3 8965859#0 8965859#1 8965859#2 8965859#3 8965859#4 30906781#0 30906781#1 30906781#2 30906781#3 30906781#4 30906781#5 30906781#6 30906781#7 30860729 30860731#5 30860731#6 30860728#0 30860728#1"/>
    </vehicle>
    <vehicle id="0.14" depart="28.00">
        <route edges="90088565#0 90088565#1 90088565#2 90088565#3 90088569 -60767675#4 -60767675#3 -60767675#2 -60767675#1 -60767675#0 30968190#0 30968190#1 30968190#2 30968190#3 8965859#0 8965859#1 8965859#2 8965859#3 8965859#4 30906781#0 30906781#1 30906781#2 30906781#3 30906781#4 30906781#5 30906781#6 30906781#7 30860729 30860731#5 30860731#6 30860728#0 30860728#1"/>
    </vehicle>
    <vehicle id="0.15" depart="30.00">
        <route edges="90088565#0 90088565#1 90088565#2 90088565#3 90088569 -60767675#4 -60767675#3 -60767675#2 -60767675#1 -60767675#0 30968190#0 30968190#1 30968190#2 30968190#3 8965859#0 8965859#1 8965859#2 8965859#3 8965859#4 30906781#0 30906781#1 30906781#2 30906781#3 30906781#4 30906781#5 30906781#6 30906781#7 30860729 30860731#5 30860731#6 30860728#0 30860728#1"/>
    </vehicle>
    <vehicle id="0.16" depart="32.00">
        <route edges="90088565#0 90088565#1 90088565#2 90088565#3 90088569 -60767675#4 -60767675#3 -60767675#2 -60767675#1 -60767675#0 30968190#0 30968190#1 30968190#2 30968190#3 8965859#0 8965859#1 8965859#2 8965859#3 8965859#4 30906781#0 30906781#1 30906781#2 30906781#3 30906781#4 30906781#5 30906781#6 30906781#7 30860729 30860731#5 30860731#6 30860728#0 30860728#1"/>
    </vehicle>
    <vehicle id="0.17" depart="34.00">
        <route edges="90088565#0 90088565#1 90088565#2 90088565#3 90088569 -60767675#4 -60767675#3 -60767675#2 -60767675#1 -60767675#0 30968190#0 30968190#1 30968190#2 30968190#3 8965859#0 8965859#1 8965859#2 8965859#3 8965859#4 30906781#0 30906781#1 30906781#2 30906781#3 30906781#4 30906781#5 30906781#6 30906781#7 30860729 30860731#5 30860731#6 30860728#0 30860728#1"/>
    </vehicle>
    <vehicle id="0.18" depart="36.00">
        <route edges="90088565#0 90088565#1 90088565#2 90088565#3 90088569 -60767675#4 -60767675#3 -60767675#2 -60767675#1 -60767675#0 30968190#0 30968190#1 30968190#2 30968190#3 8965859#0 8965859#1 8965859#2 8965859#3 8965859#4 30906781#0 30906781#1 30906781#2 30906781#3 30906781#4 30906781#5 30906781#6 30906781#7 30860729 30860731#5 30860731#6 30860728#0 30860728#1"/>
    </vehicle>
    <vehicle id="0.19" depart="38.00">
        <route edges="90088565#0 90088565#1 90088565#2 90088565#3 90088569 -60767675#4 -60767675#3 -60767675#2 -60767675#1 -60767675#0 30968190#0 30968190#1 30968190#2 30968190#3 8965859#0 8965859#1 8965859#2 8965859#3 8965859#4 30906781#0 30906781#1 30906781#2 30906781#3 30906781#4 30906781#5 30906781#6 30906781#7 30860729 30860731#5 30860731#6 30860728#0 30860728#1"/>
    </vehicle>
    <vehicle id="0.20" depart="40.00">
        <route edges="90088565#0 90088565#1 90088565#2 90088565#3 90088569 -60767675#4 -60767675#3 -60767675#2 -60767675#1 -60767675#0 30968190#0 30968190#1 30968190#2 30968190#3 8965859#0 8965859#1 8965859#2 8965859#3 8965859#4 30906781#0 30906781#1 30906781#2 30906781#3 30906781#4 30906781#5 30906781#6 30906781#7 30860729 30860731#5 30860731#6 30860728#0 30860728#1"/>
    </vehicle>
    <vehicle id="0.21" depart="42.00">
        <route edges="90088565#0 90088565#1 90088565#2 90088565#3 90088569 -60767675#4 -60767675#3 -60767675#2 -60767675#1 -60767675#0 30968190#0 30968190#1 30968190#2 30968190#3 8965859#0 8965859#1 8965859#2 8965859#3 8965859#4 30906781#0 30906781#1 30906781#2 30906781#3 30906781#4 30906781#5 30906781#6 30906781#7 30860729 30860731#5 30860731#6 30860728#0 30860728#1"/>
    </vehicle>
    <vehicle id="0.22" depart="44.00">
        <route edges="90088565#0 90088565#1 90088565#2 90088565#3 90088569 -60767675#4 -60767675#3 -60767675#2 -60767675#1 -60767675#0 30968190#0 30968190#1 30968190#2 30968190#3 8965859#0 8965859#1 8965859#2 8965859#3 8965859#4 30906781#0 30906781#1 30906781#2 30906781#3 30906781#4 30906781#5 30906781#6 30906781#7 30860729 30860731#5 30860731#6 30860728#0 30860728#1"/>
    </vehicle>
    <vehicle id="0.23" depart="46.00">
        <route edges="90088565#0 90088565#1 90088565#2 90088565#3 90088569 -60767675#4 -60767675#3 -60767675#2 -60767675#1 -60767675#0 30968190#0 30968190#1 30968190#2 30968190#3 8965859#0 8965859#1 8965859#2 8965859#3 8965859#4 30906781#0 30906781#1 30906781#2 30906781#3 30906781#4 30906781#5 30906781#6 30906781#7 30860729 30860731#5 30860731#6 30860728#0 30860728#1"/>
    </vehicle>
    <vehicle id="0.24" depart="48.00">
        <route edges="90088565#0 90088565#1 90088565#2 90088565#3 90088569 -60767675#4 -60767675#3 -60767675#2 -60767675#1 -60767675#0 30968190#0 30968190#1 30968190#2 30968190#3 8965859#0 8965859#1 8965859#2 8965859#3 8965859#4 30906781#0 30906781#1 30906781#2 30906781#3 30906781#4 30906781#5 30906781#6 30906781#7 30860729 30860731#5 30860731#6 30860728#0 30860728#1"/>
    </vehicle>
    <vehicle id="0.25" depart="50.00">
        <route edges="90088565#0 90088565#1 90088565#2 90088565#3 90088569 -60767675#4 -60767675#3 -60767675#2 -60767675#1 -60767675#0 30968190#0 30968190#1 30968190#2 30968190#3 8965859#0 8965859#1 8965859#2 8965859#3 8965859#4 30906781#0 30906781#1 30906781#2 30906781#3 30906781#4 30906781#5 30906781#6 30906781#7 30860729 30860731#5 30860731#6 30860728#0 30860728#1"/>
    </vehicle>
    <vehicle id="0.26" depart="52.00">
        <route edges="90088565#0 90088565#1 90088565#2 90088565#3 90088569 -60767675#4 -60767675#3 -60767675#2 -60767675#1 -60767675#0 30968190#0 30968190#1 30968190#2 30968190#3 8965859#0 8965859#1 8965859#2 8965859#3 8965859#4 30906781#0 30906781#1 30906781#2 30906781#3 30906781#4 30906781#5 30906781#6 30906781#7 30860729 30860731#5 30860731#6 30860728#0 30860728#1"/>
    </vehicle>
    <vehicle id="0.27" depart="54.00">
        <route edges="90088565#0 90088565#1 90088565#2 90088565#3 90088569 -60767675#4 -60767675#3 -60767675#2 -60767675#1 -60767675#0 30968190#0 30968190#1 30968190#2 30968190#3 8965859#0 8965859#1 8965859#2 8965859#3 8965859#4 30906781#0 30906781#1 30906781#2 30906781#3 30906781#4 30906781#5 30906781#6 30906781#7 30860729 30860731#5 30860731#6 30860728#0 30860728#1"/>
    </vehicle>
    <vehicle id="0.28" depart="56.00">
        <route edges="90088565#0 90088565#1 90088565#2 90088565#3 90088569 -60767675#4 -60767675#3 -60767675#2 -60767675#1 -60767675#0 30968190#0 30968190#1 30968190#2 30968190#3 8965859#0 8965859#1 8965859#2 8965859#3 8965859#4 30906781#0 30906781#1 30906781#2 30906781#3 30906781#4 30906781#5 30906781#6 30906781#7 30860729 30860731#5 30860731#6 30860728#0 30860728#1"/>
    </vehicle>
    <vehicle id="0.29" depart="58.00">
        <route edges="90088565#0 90088565#1 90088565#2 90088565#3 90088569 -60767675#4 -60767675#3 -60767675#2 -60767675#1 -60767675#0 30968190#0 30968190#1 30968190#2 30968190#3 8965859#0 8965859#1 8965859#2 8965859#3 8965859#4 30906781#0 30906781#1 30906781#2 30906781#3 30906781#4 30906781#5 30906781#6 30906781#7 30860729 30860731#5 30860731#6 30860728#0 30860728#1"/>
    </vehicle>
    <vehicle id="0.30" depart="60.00">
        <route edges="90088565#0 90088565#1 90088565#2 90088565#3 90088569 -60767675#4 -60767675#3 -60767675#2 -60767675#1 -60767675#0 30968190#0 30968190#1 30968190#2 30968190#3 8965859#0 8965859#1 8965859#2 8965859#3 8965859#4 30906781#0 30906781#1 30906781#2 30906781#3 30906781#4 30906781#5 30906781#6 30906781#7 30860729 30860731#5 30860731#6 30860728#0 30860728#1"/>
    </vehicle>
    <vehicle id="0.31" depart="62.00">
        <route edges="90088565#0 90088565#1 90088565#2 90088565#3 90088569 -60767675#4 -60767675#3 -60767675#2 -60767675#1 -60767675#0 30968190#0 30968190#1 30968190#2 30968190#3 8965859#0 8965859#1 8965859#2 8965859#3 8965859#4 30906781#0 30906781#1 30906781#2 30906781#3 30906781#4 30906781#5 30906781#6 30906781#7 30860729 30860731#5 30860731#6 30860728#0 30860728#1"/>
    </vehicle>
    <vehicle id="0.32" depart="64.00">
        <route edges="90088565#0 90088565#1 90088565#2 90088565#3 90088569 -60767675#4 -60767675#3 -60767675#2 -60767675#1 -60767675#0 30968190#0 30968190#1 30968190#2 30968190#3 8965859#0 8965859#1 8965859#2 8965859#3 8965859#4 30906781#0 30906781#1 30906781#2 30906781#3 30906781#4 30906781#5 30906781#6 30906781#7 30860729 30860731#5 30860731#6 30860728#0 30860728#1"/>
    </vehicle>
    <vehicle id="0.33" depart="66.00">
        <route edges="90088565#0 90088565#1 90088565#2 90088565#3 90088569 -60767675#4 -60767675#3 -60767675#2 -60767675#1 -60767675#0 30968190#0 30968190#1 30968190#2 30968190#3 8965859#0 8965859#1 8965859#2 8965859#3 8965859#4 30906781#0 30906781#1 30906781#2 30906781#3 30906781#4 30906781#5 30906781#6 30906781#7 30860729 30860731#5 30860731#6 30860728#0 30860728#1"/>
    </vehicle>
    <vehicle id="0.34" depart="68.00">
        <route edges="90088565#0 90088565#1 90088565#2 90088565#3 90088569 -60767675#4 -60767675#3 -60767675#2 -60767675#1 -60767675#0 30968190#0 30968190#1 30968190#2 30968190#3 8965859#0 8965859#1 8965859#2 8965859#3 8965859#4 30906781#0 30906781#1 30906781#2 30906781#3 30906781#4 30906781#5 30906781#6 30906781#7 30860729 30860731#5 30860731#6 30860728#0 30860728#1"/>
    </vehicle>
    <vehicle id="0.35" depart="70.00">
        <route edges="90088565#0 90088565#1 90088565#2 90088565#3 90088569 -60767675#4 -60767675#3 -60767675#2 -60767675#1 -60767675#0 30968190#0 30968190#1 30968190#2 30968190#3 8965859#0 8965859#1 8965859#2 8965859#3 8965859#4 30906781#0 30906781#1 30906781#2 30906781#3 30906781#4 30906781#5 30906781#6 30906781#7 30860729 30860731#5 30860731#6 30860728#0 30860728#1"/>
    </vehicle>
    <vehicle id="0.36" depart="72.00">
        <route edges="90088565#0 90088565#1 90088565#2 90088565#3 90088569 -60767675#4 -60767675#3 -60767675#2 -60767675#1 -60767675#0 30968190#0 30968190#1 30968190#2 30968190#3 8965859#0 8965859#1 8965859#2 8965859#3 8965859#4 30906781#0 30906781#1 30906781#2 30906781#3 30906781#4 30906781#5 30906781#6 30906781#7 30860729 30860731#5 30860731#6 30860728#0 30860728#1"/>
    </vehicle>
    <vehicle id="0.37" depart="74.00">
        <route edges="90088565#0 90088565#1 90088565#2 90088565#3 90088569 -60767675#4 -60767675#3 -60767675#2 -60767675#1 -60767675#0 30968190#0 30968190#1 30968190#2 30968190#3 8965859#0 8965859#1 8965859#2 8965859#3 8965859#4 30906781#0 30906781#1 30906781#2 30906781#3 30906781#4 30906781#5 30906781#6 30906781#7 30860729 30860731#5 30860731#6 30860728#0 30860728#1"/>
    </vehicle>
    <vehicle id="0.38" depart="76.00">
        <route edges="90088565#0 90088565#1 90088565#2 90088565#3 90088569 -60767675#4 -60767675#3 -60767675#2 -60767675#1 -60767675#0 30968190#0 30968190#1 30968190#2 30968190#3 8965859#0 8965859#1 8965859#2 8965859#3 8965859#4 30906781#0 30906781#1 30906781#2 30906781#3 30906781#4 30906781#5 30906781#6 30906781#7 30860729 30860731#5 30860731#6 30860728#0 30860728#1"/>
    </vehicle>
    <vehicle id="0.39" depart="78.00">
        <route edges="90088565#0 90088565#1 90088565#2 90088565#3 90088569 -60767675#4 -60767675#3 -60767675#2 -60767675#1 -60767675#0 30968190#0 30968190#1 30968190#2 30968190#3 8965859#0 8965859#1 8965859#2 8965859#3 8965859#4 30906781#0 30906781#1 30906781#2 30906781#3 30906781#4 30906781#5 30906781#6 30906781#7 30860729 30860731#5 30860731#6 30860728#0 30860728#1"/>
    </vehicle>
    <vehicle id="0.40" depart="80.00">
        <route edges="90088565#0 90088565#1 90088565#2 90088565#3 90088569 -60767675#4 -60767675#3 -60767675#2 -60767675#1 -60767675#0 30968190#0 30968190#1 30968190#2 30968190#3 8965859#0 8965859#1 8965859#2 8965859#3 8965859#4 30906781#0 30906781#1 30906781#2 30906781#3 30906781#4 30906781#5 30906781#6 30906781#7 30860729 30860731#5 30860731#6 30860728#0 30860728#1"/>
    </vehicle>
    <vehicle id="0.41" depart="82.00">
        <route edges="90088565#0 90088565#1 90088565#2 90088565#3 90088569 -60767675#4 -60767675#3 -60767675#2 -60767675#1 -60767675#0 30968190#0 30968190#1 30968190#2 30968190#3 8965859#0 8965859#1 8965859#2 8965859#3 8965859#4 30906781#0 30906781#1 30906781#2 30906781#3 30906781#4 30906781#5 30906781#6 30906781#7 30860729 30860731#5 30860731#6 30860728#0 30860728#1"/>
    </vehicle>
    <vehicle id="0.42" depart="84.00">
        <route edges="90088565#0 90088565#1 90088565#2 90088565#3 90088569 -60767675#4 -60767675#3 -60767675#2 -60767675#1 -60767675#0 30968190#0 30968190#1 30968190#2 30968190#3 8965859#0 8965859#1 8965859#2 8965859#3 8965859#4 30906781#0 30906781#1 30906781#2 30906781#3 30906781#4 30906781#5 30906781#6 30906781#7 30860729 30860731#5 30860731#6 30860728#0 30860728#1"/>
    </vehicle>
    <vehicle id="0.43" depart="86.00">
        <route edges="90088565#0 90088565#1 90088565#2 90088565#3 90088569 -60767675#4 -60767675#3 -60767675#2 -60767675#1 -60767675#0 30968190#0 30968190#1 30968190#2 30968190#3 8965859#0 8965859#1 8965859#2 8965859#3 8965859#4 30906781#0 30906781#1 30906781#2 30906781#3 30906781#4 30906781#5 30906781#6 30906781#7 30860729 30860731#5 30860731#6 30860728#0 30860728#1"/>
    </vehicle>
    <vehicle id="0.44" depart="88.00">
        <route edges="90088565#0 90088565#1 90088565#2 90088565#3 90088569 -60767675#4 -60767675#3 -60767675#2 -60767675#1 -60767675#0 30968190#0 30968190#1 30968190#2 30968190#3 8965859#0 8965859#1 8965859#2 8965859#3 8965859#4 30906781#0 30906781#1 30906781#2 30906781#3 30906781#4 30906781#5 30906781#6 30906781#7 30860729 30860731#5 30860731#6 30860728#0 30860728#1"/>
    </vehicle>
    <vehicle id="0.45" depart="90.00">
        <route edges="90088565#0 90088565#1 90088565#2 90088565#3 90088569 -60767675#4 -60767675#3 -60767675#2 -60767675#1 -60767675#0 30968190#0 30968190#1 30968190#2 30968190#3 8965859#0 8965859#1 8965859#2 8965859#3 8965859#4 30906781#0 30906781#1 30906781#2 30906781#3 30906781#4 30906781#5 30906781#6 30906781#7 30860729 30860731#5 30860731#6 30860728#0 30860728#1"/>
    </vehicle>
    <vehicle id="0.46" depart="92.00">
        <route edges="90088565#0 90088565#1 90088565#2 90088565#3 90088569 -60767675#4 -60767675#3 -60767675#2 -60767675#1 -60767675#0 30968190#0 30968190#1 30968190#2 30968190#3 8965859#0 8965859#1 8965859#2 8965859#3 8965859#4 30906781#0 30906781#1 30906781#2 30906781#3 30906781#4 30906781#5 30906781#6 30906781#7 30860729 30860731#5 30860731#6 30860728#0 30860728#1"/>
    </vehicle>
    <vehicle id="0.47" depart="94.00">
        <route edges="90088565#0 90088565#1 90088565#2 90088565#3 90088569 -60767675#4 -60767675#3 -60767675#2 -60767675#1 -60767675#0 30968190#0 30968190#1 30968190#2 30968190#3 8965859#0 8965859#1 8965859#2 8965859#3 8965859#4 30906781#0 30906781#1 30906781#2 30906781#3 30906781#4 30906781#5 30906781#6 30906781#7 30860729 30860731#5 30860731#6 30860728#0 30860728#1"/>
    </vehicle>
    <vehicle id="0.48" depart="96.00">
        <route edges="90088565#0 90088565#1 90088565#2 90088565#3 90088569 -60767675#4 -60767675#3 -60767675#2 -60767675#1 -60767675#0 30968190#0 30968190#1 30968190#2 30968190#3 8965859#0 8965859#1 8965859#2 8965859#3 8965859#4 30906781#0 30906781#1 30906781#2 30906781#3 30906781#4 30906781#5 30906781#6 30906781#7 30860729 30860731#5 30860731#6 30860728#0 30860728#1"/>
    </vehicle>
    <vehicle id="0.49" depart="98.00">
        <route edges="90088565#0 90088565#1 90088565#2 90088565#3 90088569 -60767675#4 -60767675#3 -60767675#2 -60767675#1 -60767675#0 30968190#0 30968190#1 30968190#2 30968190#3 8965859#0 8965859#1 8965859#2 8965859#3 8965859#4 30906781#0 30906781#1 30906781#2 30906781#3 30906781#4 30906781#5 30906781#6 30906781#7 30860729 30860731#5 30860731#6 30860728#0 30860728#1"/>
    </vehicle>
    <vehicle id="1.0" depart="0.00">
        <route edges="30860753#0 30860753#1 30860731#1 30860731#2 30860731#3 30860730 -30906781#7 -30906781#6 -30906781#5 -30906781#4 -30906781#3 -30906781#2 -30906781#1 -30906781#0 30906778 231369969 188696880#0 188696880#1 188696880#2 188696880#3 60767660#0 60767660#1 60767675#0 60767675#1 60767675#2 60767675#3 60767675#4 90088572#0 90088572#1 90088573#0 90088573#1 90088573#2 90088573#3"/>
    </vehicle>
    <vehicle id="2.0" depart="0.00">
        <route edges="244107342#1 244107342#2 244107342#3 244107342#4 244107342#5 244107342#6 244107342#7 244107342#8 244107342#9 244107342#10 244107342#11 244107342#12 244107342#13 244107342#14 244107342#15 244107342#16"/>
    </vehicle>
    <vehicle id="3.0" depart="0.00">
        <route edges="91928200#7 91928200#8 91928200#9 188696885#0 188696885#1"/>
    </vehicle>
    <vehicle id="4.0" depart="0.00">
        <route edges="-8969746#0 -240577405#2 -240577405#1 -240577405#0 -149436519 149436522 188696880#0 188696880#1 188696880#2 188696880#3 60767660#0 60767660#1 60767675#0 60767675#1 60767675#2 60767675#3 60767675#4 90088572#0 90088572#1 90088573#0 90088573#1 90088573#2 90088573#3"/>
    </vehicle>
    <vehicle id="5.0" depart="0.00">
        <route edges="90088565#0 90088565#1 90088565#2 90088565#3 90088569 -60767675#4 -60767675#3 -60767675#2 -60767675#1 -60767675#0 30968190#0 30968190#1 30968190#2 60767674 244107342#4 244107342#5 244107342#6 244107342#7 244107342#8 244107342#9 244107342#10 244107342#11 244107342#12 244107342#13 244107342#14 244107342#15 244107342#16"/>
    </vehicle>
    <vehicle id="6.0" depart="0.00">
        <route edges="30860753#0 30860753#1 30860731#1 30860731#2 30860731#3 30860730 -30906781#7 -30906781#6 -30906781#5 -30906781#4 -30906781#3 -30906781#2 -30906781#1 -30906781#0 30906778 231369969 188696880#0 188696880#1 188696880#2 188696880#3 188696885#0 188696885#1"/>
    </vehicle>
    <vehicle id="3.1" depart="6.00">
        <route edges="91928200#7 91928200#8 91928200#9 188696885#0 188696885#1"/>
    </vehicle>
    <vehicle id="3.2" depart="12.00">
        <route edges="91928200#7 91928200#8 91928200#9 188696885#0 188696885#1"/>
    </vehicle>
    <vehicle id="3.3" depart="18.00">
        <route edges="91928200#7 91928200#8 91928200#9 188696885#0 188696885#1"/>
    </vehicle>
    <vehicle id="2.1" depart="21.43">
        <route edges="244107342#1 244107342#2 244107342#3 244107342#4 244107342#5 244107342#6 244107342#7 244107342#8 244107342#9 244107342#10 244107342#11 244107342#12 244107342#13 244107342#14 244107342#15 244107342#16"/>
    </vehicle>
    <vehicle id="3.4" depart="24.00">
        <route edges="91928200#7 91928200#8 91928200#9 188696885#0 188696885#1"/>
    </vehicle>
    <vehicle id="3.5" depart="30.00">
        <route edges="91928200#7 91928200#8 91928200#9 188696885#0 188696885#1"/>
    </vehicle>
    <vehicle id="3.6" depart="36.00">
        <route edges="91928200#7 91928200#8 91928200#9 188696885#0 188696885#1"/>
    </vehicle>
    <vehicle id="3.7" depart="42.00">
        <route edges="91928200#7 91928200#8 91928200#9 188696885#0 188696885#1"/>
    </vehicle>
    <vehicle id="2.2" depart="42.86">
        <route edges="244107342#1 244107342#2 244107342#3 244107342#4 244107342#5 244107342#6 244107342#7 244107342#8 244107342#9 244107342#10 244107342#11 244107342#12 244107342#13 244107342#14 244107342#15 244107342#16"/>
    </vehicle>
    <vehicle id="4.1" depart="42.86">
        <route edges="-8969746#0 -240577405#2 -240577405#1 -240577405#0 -149436519 149436522 188696880#0 188696880#1 188696880#2 188696880#3 60767660#0 60767660#1 60767675#0 60767675#1 60767675#2 60767675#3 60767675#4 90088572#0 90088572#1 90088573#0 90088573#1 90088573#2 90088573#3"/>
    </vehicle>
    <vehicle id="5.1" depart="42.86">
        <route edges="90088565#0 90088565#1 90088565#2 90088565#3 90088569 -60767675#4 -60767675#3 -60767675#2 -60767675#1 -60767675#0 30968190#0 30968190#1 30968190#2 60767674 244107342#4 244107342#5 244107342#6 244107342#7 244107342#8 244107342#9 244107342#10 244107342#11 244107342#12 244107342#13 244107342#14 244107342#15 244107342#16"/>
    </vehicle>
    <vehicle id="3.8" depart="48.00">
        <route edges="91928200#7 91928200#8 91928200#9 188696885#0 188696885#1"/>
    </vehicle>
    <vehicle id="3.9" depart="54.00">
        <route edges="91928200#7 91928200#8 91928200#9 188696885#0 188696885#1"/>
    </vehicle>
    <vehicle id="3.10" depart="60.00">
        <route edges="91928200#7 91928200#8 91928200#9 188696885#0 188696885#1"/>
    </vehicle>
    <vehicle id="6.1" depart="60.00">
        <route edges="30860753#0 30860753#1 30860731#1 30860731#2 30860731#3 30860730 -30906781#7 -30906781#6 -30906781#5 -30906781#4 -30906781#3 -30906781#2 -30906781#1 -30906781#0 30906778 231369969 188696880#0 188696880#1 188696880#2 188696880#3 188696885#0 188696885#1"/>
    </vehicle>
    <vehicle id="2.3" depart="64.28">
        <route edges="244107342#1 244107342#2 244107342#3 244107342#4 244107342#5 244107342#6 244107342#7 244107342#8 244107342#9 244107342#10 244107342#11 244107342#12 244107342#13 244107342#14 244107342#15 244107342#16"/>
    </vehicle>
    <vehicle id="3.11" depart="66.00">
        <route edges="91928200#7 91928200#8 91928200#9 188696885#0 188696885#1"/>
    </vehicle>
    <vehicle id="3.12" depart="72.00">
        <route edges="91928200#7 91928200#8 91928200#9 188696885#0 188696885#1"/>
    </vehicle>
    <vehicle id="3.13" depart="78.00">
        <route edges="91928200#7 91928200#8 91928200#9 188696885#0 188696885#1"/>
    </vehicle>
    <vehicle id="3.14" depart="84.00">
        <route edges="91928200#7 91928200#8 91928200#9 188696885#0 188696885#1"/>
    </vehicle>
    <vehicle id="2.4" depart="85.71">
        <route edges="244107342#1 244107342#2 244107342#3 244107342#4 244107342#5 244107342#6 244107342#7 244107342#8 244107342#9 244107342#10 244107342#11 244107342#12 244107342#13 244107342#14 244107342#15 244107342#16"/>
    </vehicle>
    <vehicle id="4.2" depart="85.71">
        <route edges="-8969746#0 -240577405#2 -240577405#1 -240577405#0 -149436519 149436522 188696880#0 188696880#1 188696880#2 188696880#3 60767660#0 60767660#1 60767675#0 60767675#1 60767675#2 60767675#3 60767675#4 90088572#0 90088572#1 90088573#0 90088573#1 90088573#2 90088573#3"/>
    </vehicle>
    <vehicle id="5.2" depart="85.71">
        <route edges="90088565#0 90088565#1 90088565#2 90088565#3 90088569 -60767675#4 -60767675#3 -60767675#2 -60767675#1 -60767675#0 30968190#0 30968190#1 30968190#2 60767674 244107342#4 244107342#5 244107342#6 244107342#7 244107342#8 244107342#9 244107342#10 244107342#11 244107342#12 244107342#13 244107342#14 244107342#15 244107342#16"/>
    </vehicle>
    <vehicle id="3.15" depart="90.00">
        <route edges="91928200#7 91928200#8 91928200#9 188696885#0 188696885#1"/>
    </vehicle>
    <vehicle id="3.16" depart="96.00">
        <route edges="91928200#7 91928200#8 91928200#9 188696885#0 188696885#1"/>
    </vehicle>
    <vehicle id="7.0" depart="100.00">
        <route edges="90088565#0 90088565#1 90088565#2 90088565#3 90088569 -60767675#4 -60767675#3 -60767675#2 -60767675#1 -60767675#0 30968190#0 30968190#1 30968190#2 30968190#3 8965859#0 8965859#1 8965859#2 8965859#3 8965859#4 30906781#0 30906781#1 30906781#2 30906781#3 30906781#4 30906781#5 30906781#6 30906781#7 30860729 30860731#5 30860731#6 30860728#0 30860728#1"/>
    </vehicle>
    <vehicle id="3.17" depart="102.00">
        <route edges="91928200#7 91928200#8 91928200#9 188696885#0 188696885#1"/>
    </vehicle>
    <vehicle id="7.1" depart="102.50">
        <route edges="90088565#0 90088565#1 90088565#2 90088565#3 90088569 -60767675#4 -60767675#3 -60767675#2 -60767675#1 -60767675#0 30968190#0 30968190#1 30968190#2 30968190#3 8965859#0 8965859#1 8965859#2 8965859#3 8965859#4 30906781#0 30906781#1 30906781#2 30906781#3 30906781#4 30906781#5 30906781#6 30906781#7 30860729 30860731#5 30860731#6 30860728#0 30860728#1"/>
    </vehicle>