<?xml version="1.0" encoding="UTF-8"?>

<!-- generated on Sat Nov 23 22:02:20 2013 by SUMO duarouter Version 0.17.1
<?xml version="1.0" encoding="UTF-8"?>

<configuration xmlns:xsi="http://www.w3.org/2001/XMLSchema-instance" xsi:noNamespaceSchemaLocation="http://sumo.sf.net/xsd/duarouterConfiguration.xsd">

    <input>
        <net-file value="test.net.xml"/>
        <trip-files value="test.flow.xml"/>
    </input>

    <output>
        <output-file value="test.rou.xml"/>
    </output>

</configuration>
-->

<routes xmlns:xsi="http://www.w3.org/2001/XMLSchema-instance" xsi:noNamespaceSchemaLocation="http://sumo.sf.net/xsd/routes_file.xsd">
    <vehicle id="0.0" depart="0.00">
        <route edges="90088565#0 90088565#1 90088565#2 90088565#3 90088569 -60767675#4 -60767675#3 -60767675#2 -60767675#1 -60767675#0 30968190#0 30968190#1 30968190#2 30968190#3 8965859#0 8965859#1 8965859#2 8965859#3 8965859#4 30906781#0 30906781#1 30906781#2 30906781#3 30906781#4 30906781#5 30906781#6 30906781#7 30860729 30860731#5 30860731#6 30860728#0 30860728#1"/>
    </vehicle>
    <vehicle id="1.0" depart="0.00">
        <route edges="30860753#0 30860753#1 30860731#1 30860731#2 30860731#3 30860730 -30906781#7 -30906781#6 -30906781#5 -30906781#4 -30906781#3 -30906781#2 -30906781#1 -30906781#0 30906778 231369969 188696880#0 188696880#1 188696880#2 188696880#3 60767660#0 60767660#1 60767675#0 60767675#1 60767675#2 60767675#3 60767675#4 90088572#0 90088572#1 90088573#0 90088573#1 90088573#2 90088573#3"/>
    </vehicle>
    <vehicle id="2.0" depart="0.00">
        <route edges="244107342#1 244107342#2 244107342#3 244107342#4 244107342#5 244107342#6 244107342#7 244107342#8 244107342#9 244107342#10 244107342#11 244107342#12 244107342#13 244107342#14 244107342#15 244107342#16"/>
    </vehicle>
    <vehicle id="3.0" depart="0.00">
        <route edges="91928200#7 91928200#8 91928200#9 188696885#0 188696885#1"/>
    </vehicle>
    <vehicle id="4.0" depart="0.00">
        <route edges="-8969746#0 -240577405#2 -240577405#1 -240577405#0 -149436519 149436522 188696880#0 188696880#1 188696880#2 188696880#3 60767660#0 60767660#1 60767675#0 60767675#1 60767675#2 60767675#3 60767675#4 90088572#0 90088572#1 90088573#0 90088573#1 90088573#2 90088573#3"/>
    </vehicle>
    <vehicle id="5.0" depart="0.00">
        <route edges="90088565#0 90088565#1 90088565#2 90088565#3 90088569 -60767675#4 -60767675#3 -60767675#2 -60767675#1 -60767675#0 30968190#0 30968190#1 30968190#2 60767674 244107342#4 244107342#5 244107342#6 244107342#7 244107342#8 244107342#9 244107342#10 244107342#11 244107342#12 244107342#13 244107342#14 244107342#15 244107342#16"/>
    </vehicle>
    <vehicle id="6.0" depart="0.00">
        <route edges="30860753#0 30860753#1 30860731#1 30860731#2 30860731#3 30860730 -30906781#7 -30906781#6 -30906781#5 -30906781#4 -30906781#3 -30906781#2 -30906781#1 -30906781#0 30906778 231369969 188696880#0 188696880#1 188696880#2 188696880#3 188696885#0 188696885#1"/>
    </vehicle>
    <vehicle id="3.1" depart="0.60">
        <route edges="91928200#7 91928200#8 91928200#9 188696885#0 188696885#1"/>
    </vehicle>
    <vehicle id="3.2" depart="1.20">
        <route edges="91928200#7 91928200#8 91928200#9 188696885#0 188696885#1"/>
    </vehicle>
    <vehicle id="3.3" depart="1.80">
        <route edges="91928200#7 91928200#8 91928200#9 188696885#0 188696885#1"/>
    </vehicle>
    <vehicle id="3.4" depart="2.40">
        <route edges="91928200#7 91928200#8 91928200#9 188696885#0 188696885#1"/>
    </vehicle>
    <vehicle id="3.5" depart="3.00">
        <route edges="91928200#7 91928200#8 91928200#9 188696885#0 188696885#1"/>
    </vehicle>
    <vehicle id="3.6" depart="3.60">
        <route edges="91928200#7 91928200#8 91928200#9 188696885#0 188696885#1"/>
    </vehicle>
    <vehicle id="3.7" depart="4.20">
        <route edges="91928200#7 91928200#8 91928200#9 188696885#0 188696885#1"/>
    </vehicle>
    <vehicle id="0.1" depart="4.29">
        <route edges="90088565#0 90088565#1 90088565#2 90088565#3 90088569 -60767675#4 -60767675#3 -60767675#2 -60767675#1 -60767675#0 30968190#0 30968190#1 30968190#2 30968190#3 8965859#0 8965859#1 8965859#2 8965859#3 8965859#4 30906781#0 30906781#1 30906781#2 30906781#3 30906781#4 30906781#5 30906781#6 30906781#7 30860729 30860731#5 30860731#6 30860728#0 30860728#1"/>
    </vehicle>
    <vehicle id="3.8" depart="4.80">
        <route edges="91928200#7 91928200#8 91928200#9 188696885#0 188696885#1"/>
    </vehicle>
    <vehicle id="3.9" depart="5.40">
        <route edges="91928200#7 91928200#8 91928200#9 188696885#0 188696885#1"/>
    </vehicle>
    <vehicle id="3.10" depart="6.00">
        <route edges="91928200#7 91928200#8 91928200#9 188696885#0 188696885#1"/>
    </vehicle>
    <vehicle id="3.11" depart="6.60">
        <route edges="91928200#7 91928200#8 91928200#9 188696885#0 188696885#1"/>
    </vehicle>
    <vehicle id="3.12" depart="7.20">
        <route edges="91928200#7 91928200#8 91928200#9 188696885#0 188696885#1"/>
    </vehicle>
    <vehicle id="3.13" depart="7.80">
        <route edges="91928200#7 91928200#8 91928200#9 188696885#0 188696885#1"/>
    </vehicle>
    <vehicle id="3.14" depart="8.40">
        <route edges="91928200#7 91928200#8 91928200#9 188696885#0 188696885#1"/>
    </vehicle>
    <vehicle id="0.2" depart="8.57">
        <route edges="90088565#0 90088565#1 90088565#2 90088565#3 90088569 -60767675#4 -60767675#3 -60767675#2 -60767675#1 -60767675#0 30968190#0 30968190#1 30968190#2 30968190#3 8965859#0 8965859#1 8965859#2 8965859#3 8965859#4 30906781#0 30906781#1 30906781#2 30906781#3 30906781#4 30906781#5 30906781#6 30906781#7 30860729 30860731#5 30860731#6 30860728#0 30860728#1"/>
    </vehicle>
    <vehicle id="3.15" depart="9.00">
        <route edges="91928200#7 91928200#8 91928200#9 188696885#0 188696885#1"/>
    </vehicle>
    <vehicle id="3.16" depart="9.60">
        <route edges="91928200#7 91928200#8 91928200#9 188696885#0 188696885#1"/>
    </vehicle>
    <vehicle id="3.17" depart="10.20">
        <route edges="91928200#7 91928200#8 91928200#9 188696885#0 188696885#1"/>
    </vehicle>
    <vehicle id="3.18" depart="10.80">
        <route edges="91928200#7 91928200#8 91928200#9 188696885#0 188696885#1"/>
    </vehicle>
    <vehicle id="3.19" depart="11.40">
        <route edges="91928200#7 91928200#8 91928200#9 188696885#0 188696885#1"/>
    </vehicle>
    <vehicle id="3.20" depart="12.00">
        <route edges="91928200#7 91928200#8 91928200#9 188696885#0 188696885#1"/>
    </vehicle>
    <vehicle id="3.21" depart="12.60">
        <route edges="91928200#7 91928200#8 91928200#9 188696885#0 188696885#1"/>
    </vehicle>
    <vehicle id="0.3" depart="12.86">
        <route edges="90088565#0 90088565#1 90088565#2 90088565#3 90088569 -60767675#4 -60767675#3 -60767675#2 -60767675#1 -60767675#0 30968190#0 30968190#1 30968190#2 30968190#3 8965859#0 8965859#1 8965859#2 8965859#3 8965859#4 30906781#0 30906781#1 30906781#2 30906781#3 30906781#4 30906781#5 30906781#6 30906781#7 30860729 30860731#5 30860731#6 30860728#0 30860728#1"/>
    </vehicle>
    <vehicle id="3.22" depart="13.20">
        <route edges="91928200#7 91928200#8 91928200#9 188696885#0 188696885#1"/>
    </vehicle>
    <vehicle id="3.23" depart="13.80">
        <route edges="91928200#7 91928200#8 91928200#9 188696885#0 188696885#1"/>
    </vehicle>
    <vehicle id="3.24" depart="14.40">
        <route edges="91928200#7 91928200#8 91928200#9 188696885#0 188696885#1"/>
    </vehicle>
    <vehicle id="3.25" depart="15.00">
        <route edges="91928200#7 91928200#8 91928200#9 188696885#0 188696885#1"/>
    </vehicle>
    <vehicle id="3.26" depart="15.60">
        <route edges="91928200#7 91928200#8 91928200#9 188696885#0 188696885#1"/>
    </vehicle>
    <vehicle id="3.27" depart="16.20">
        <route edges="91928200#7 91928200#8 91928200#9 188696885#0 188696885#1"/>
    </vehicle>
    <vehicle id="3.28" depart="16.80">
        <route edges="91928200#7 91928200#8 91928200#9 188696885#0 188696885#1"/>
    </vehicle>
    <vehicle id="0.4" depart="17.14">
        <route edges="90088565#0 90088565#1 90088565#2 90088565#3 90088569 -60767675#4 -60767675#3 -60767675#2 -60767675#1 -60767675#0 30968190#0 30968190#1 30968190#2 30968190#3 8965859#0 8965859#1 8965859#2 8965859#3 8965859#4 30906781#0 30906781#1 30906781#2 30906781#3 30906781#4 30906781#5 30906781#6 30906781#7 30860729 30860731#5 30860731#6 30860728#0 30860728#1"/>
    </vehicle>
    <vehicle id="3.29" depart="17.40">
        <route edges="91928200#7 91928200#8 91928200#9 188696885#0 188696885#1"/>
    </vehicle>
    <vehicle id="3.30" depart="18.00">
        <route edges="91928200#7 91928200#8 91928200#9 188696885#0 188696885#1"/>
    </vehicle>
    <vehicle id="3.31" depart="18.60">
        <route edges="91928200#7 91928200#8 91928200#9 188696885#0 188696885#1"/>
    </vehicle>
    <vehicle id="3.32" depart="19.20">
        <route edges="91928200#7 91928200#8 91928200#9 188696885#0 188696885#1"/>
    </vehicle>
    <vehicle id="3.33" depart="19.80">
        <route edges="91928200#7 91928200#8 91928200#9 188696885#0 188696885#1"/>
    </vehicle>
    <vehicle id="3.34" depart="20.40">
        <route edges="91928200#7 91928200#8 91928200#9 188696885#0 188696885#1"/>
    </vehicle>
    <vehicle id="3.35" depart="21.00">
        <route edges="91928200#7 91928200#8 91928200#9 188696885#0 188696885#1"/>
    </vehicle>
    <vehicle id="0.5" depart="21.43">
        <route edges="90088565#0 90088565#1 90088565#2 90088565#3 90088569 -60767675#4 -60767675#3 -60767675#2 -60767675#1 -60767675#0 30968190#0 30968190#1 30968190#2 30968190#3 8965859#0 8965859#1 8965859#2 8965859#3 8965859#4 30906781#0 30906781#1 30906781#2 30906781#3 30906781#4 30906781#5 30906781#6 30906781#7 30860729 30860731#5 30860731#6 30860728#0 30860728#1"/>
    </vehicle>
    <vehicle id="2.1" depart="21.43">
        <route edges="244107342#1 244107342#2 244107342#3 244107342#4 244107342#5 244107342#6 244107342#7 244107342#8 244107342#9 244107342#10 244107342#11 244107342#12 244107342#13 244107342#14 244107342#15 244107342#16"/>
    </vehicle>
    <vehicle id="3.36" depart="21.60">
        <route edges="91928200#7 91928200#8 91928200#9 188696885#0 188696885#1"/>
    </vehicle>
    <vehicle id="3.37" depart="22.20">
        <route edges="91928200#7 91928200#8 91928200#9 188696885#0 188696885#1"/>
    </vehicle>
    <vehicle id="3.38" depart="22.80">
        <route edges="91928200#7 91928200#8 91928200#9 188696885#0 188696885#1"/>
    </vehicle>
    <vehicle id="3.39" depart="23.40">
        <route edges="91928200#7 91928200#8 91928200#9 188696885#0 188696885#1"/>
    </vehicle>
    <vehicle id="3.40" depart="24.00">
        <route edges="91928200#7 91928200#8 91928200#9 188696885#0 188696885#1"/>
    </vehicle>
    <vehicle id="3.41" depart="24.60">
        <route edges="91928200#7 91928200#8 91928200#9 188696885#0 188696885#1"/>
    </vehicle>
    <vehicle id="3.42" depart="25.20">
        <route edges="91928200#7 91928200#8 91928200#9 188696885#0 188696885#1"/>
    </vehicle>
    <vehicle id="0.6" depart="25.71">
        <route edges="90088565#0 90088565#1 90088565#2 90088565#3 90088569 -60767675#4 -60767675#3 -60767675#2 -60767675#1 -60767675#0 30968190#0 30968190#1 30968190#2 30968190#3 8965859#0 8965859#1 8965859#2 8965859#3 8965859#4 30906781#0 30906781#1 30906781#2 30906781#3 30906781#4 30906781#5 30906781#6 30906781#7 30860729 30860731#5 30860731#6 30860728#0 30860728#1"/>
    </vehicle>
    <vehicle id="3.43" depart="25.80">
        <route edges="91928200#7 91928200#8 91928200#9 188696885#0 188696885#1"/>
    </vehicle>
    <vehicle id="3.44" depart="26.40">
        <route edges="91928200#7 91928200#8 91928200#9 188696885#0 188696885#1"/>
    </vehicle>
    <vehicle id="3.45" depart="27.00">
        <route edges="91928200#7 91928200#8 91928200#9 188696885#0 188696885#1"/>
    </vehicle>
    <vehicle id="3.46" depart="27.60">
        <route edges="91928200#7 91928200#8 91928200#9 188696885#0 188696885#1"/>
    </vehicle>
    <vehicle id="3.47" depart="28.20">
        <route edges="91928200#7 91928200#8 91928200#9 188696885#0 188696885#1"/>
    </vehicle>
    <vehicle id="3.48" depart="28.80">
        <route edges="91928200#7 91928200#8 91928200#9 188696885#0 188696885#1"/>
    </vehicle>
    <vehicle id="3.49" depart="29.40">
        <route edges="91928200#7 91928200#8 91928200#9 188696885#0 188696885#1"/>
    </vehicle>
    <vehicle id="0.7" depart="30.00">
        <route edges="90088565#0 90088565#1 90088565#2 90088565#3 90088569 -60767675#4 -60767675#3 -60767675#2 -60767675#1 -60767675#0 30968190#0 30968190#1 30968190#2 30968190#3 8965859#0 8965859#1 8965859#2 8965859#3 8965859#4 30906781#0 30906781#1 30906781#2 30906781#3 30906781#4 30906781#5 30906781#6 30906781#7 30860729 30860731#5 30860731#6 30860728#0 30860728#1"/>
    </vehicle>
    <vehicle id="0.8" depart="34.28">
        <route edges="90088565#0 90088565#1 90088565#2 90088565#3 90088569 -60767675#4 -60767675#3 -60767675#2 -60767675#1 -60767675#0 30968190#0 30968190#1 30968190#2 30968190#3 8965859#0 8965859#1 8965859#2 8965859#3 8965859#4 30906781#0 30906781#1 30906781#2 30906781#3 30906781#4 30906781#5 30906781#6 30906781#7 30860729 30860731#5 30860731#6 30860728#0 30860728#1"/>
    </vehicle>
    <vehicle id="0.9" depart="38.56">
        <route edges="90088565#0 90088565#1 90088565#2 90088565#3 90088569 -60767675#4 -60767675#3 -60767675#2 -60767675#1 -60767675#0 30968190#0 30968190#1 30968190#2 30968190#3 8965859#0 8965859#1 8965859#2 8965859#3 8965859#4 30906781#0 30906781#1 30906781#2 30906781#3 30906781#4 30906781#5 30906781#6 30906781#7 30860729 30860731#5 30860731#6 30860728#0 30860728#1"/>
    </vehicle>
    <vehicle id="0.10" depart="42.85">
        <route edges="90088565#0 90088565#1 90088565#2 90088565#3 90088569 -60767675#4 -60767675#3 -60767675#2 -60767675#1 -60767675#0 30968190#0 30968190#1 30968190#2 30968190#3 8965859#0 8965859#1 8965859#2 8965859#3 8965859#4 30906781#0 30906781#1 30906781#2 30906781#3 30906781#4 30906781#5 30906781#6 30906781#7 30860729 30860731#5 30860731#6 30860728#0 30860728#1"/>
    </vehicle>
    <vehicle id="2.2" depart="42.86">
        <route edges="244107342#1 244107342#2 244107342#3 244107342#4 244107342#5 244107342#6 244107342#7 244107342#8 244107342#9 244107342#10 244107342#11 244107342#12 244107342#13 244107342#14 244107342#15 244107342#16"/>
    </vehicle>
    <vehicle id="4.1" depart="42.86">
        <route edges="-8969746#0 -240577405#2 -240577405#1 -240577405#0 -149436519 149436522 188696880#0 188696880#1 188696880#2 188696880#3 60767660#0 60767660#1 60767675#0 60767675#1 60767675#2 60767675#3 60767675#4 90088572#0 90088572#1 90088573#0 90088573#1 90088573#2 90088573#3"/>
    </vehicle>
    <vehicle id="5.1" depart="42.86">
        <route edges="90088565#0 90088565#1 90088565#2 90088565#3 90088569 -60767675#4 -60767675#3 -60767675#2 -60767675#1 -60767675#0 30968190#0 30968190#1 30968190#2 60767674 244107342#4 244107342#5 244107342#6 244107342#7 244107342#8 244107342#9 244107342#10 244107342#11 244107342#12 244107342#13 244107342#14 244107342#15 244107342#16"/>
    </vehicle>
    <vehicle id="0.11" depart="47.13">
        <route edges="90088565#0 90088565#1 90088565#2 90088565#3 90088569 -60767675#4 -60767675#3 -60767675#2 -60767675#1 -60767675#0 30968190#0 30968190#1 30968190#2 30968190#3 8965859#0 8965859#1 8965859#2 8965859#3 8965859#4 30906781#0 30906781#1 30906781#2 30906781#3 30906781#4 30906781#5 30906781#6 30906781#7 30860729 30860731#5 30860731#6 30860728#0 30860728#1"/>
    </vehicle>
    <vehicle id="0.12" depart="51.42">
        <route edges="90088565#0 90088565#1 90088565#2 90088565#3 90088569 -60767675#4 -60767675#3 -60767675#2 -60767675#1 -60767675#0 30968190#0 30968190#1 30968190#2 30968190#3 8965859#0 8965859#1 8965859#2 8965859#3 8965859#4 30906781#0 30906781#1 30906781#2 30906781#3 30906781#4 30906781#5 30906781#6 30906781#7 30860729 30860731#5 30860731#6 30860728#0 30860728#1"/>
    </vehicle>
    <vehicle id="0.13" depart="55.70">
        <route edges="90088565#0 90088565#1 90088565#2 90088565#3 90088569 -60767675#4 -60767675#3 -60767675#2 -60767675#1 -60767675#0 30968190#0 30968190#1 30968190#2 30968190#3 8965859#0 8965859#1 8965859#2 8965859#3 8965859#4 30906781#0 30906781#1 30906781#2 30906781#3 30906781#4 30906781#5 30906781#6 30906781#7 30860729 30860731#5 30860731#6 30860728#0 30860728#1"/>
    </vehicle>
    <vehicle id="0.14" depart="59.99">
        <route edges="90088565#0 90088565#1 90088565#2 90088565#3 90088569 -60767675#4 -60767675#3 -60767675#2 -60767675#1 -60767675#0 30968190#0 30968190#1 30968190#2 30968190#3 8965859#0 8965859#1 8965859#2 8965859#3 8965859#4 30906781#0 30906781#1 30906781#2 30906781#3 30906781#4 30906781#5 30906781#6 30906781#7 30860729 30860731#5 30860731#6 30860728#0 30860728#1"/>
    </vehicle>
    <vehicle id="6.1" depart="60.00">
        <route edges="30860753#0 30860753#1 30860731#1 30860731#2 30860731#3 30860730 -30906781#7 -30906781#6 -30906781#5 -30906781#4 -30906781#3 -30906781#2 -30906781#1 -30906781#0 30906778 231369969 188696880#0 188696880#1 188696880#2 188696880#3 188696885#0 188696885#1"/>
    </vehicle>
    <vehicle id="0.15" depart="64.28">
        <route edges="90088565#0 90088565#1 90088565#2 90088565#3 90088569 -60767675#4 -60767675#3 -60767675#2 -60767675#1 -60767675#0 30968190#0 30968190#1 30968190#2 30968190#3 8965859#0 8965859#1 8965859#2 8965859#3 8965859#4 30906781#0 30906781#1 30906781#2 30906781#3 30906781#4 30906781#5 30906781#6 30906781#7 30860729 30860731#5 30860731#6 30860728#0 30860728#1"/>
    </vehicle>
    <vehicle id="2.3" depart="64.28">
        <route edges="244107342#1 244107342#2 244107342#3 244107342#4 244107342#5 244107342#6 244107342#7 244107342#8 244107342#9 244107342#10 244107342#11 244107342#12 244107342#13 244107342#14 244107342#15 244107342#16"/>
    </vehicle>
    <vehicle id="0.16" depart="68.56">
        <route edges="90088565#0 90088565#1 90088565#2 90088565#3 90088569 -60767675#4 -60767675#3 -60767675#2 -60767675#1 -60767675#0 30968190#0 30968190#1 30968190#2 30968190#3 8965859#0 8965859#1 8965859#2 8965859#3 8965859#4 30906781#0 30906781#1 30906781#2 30906781#3 30906781#4 30906781#5 30906781#6 30906781#7 30860729 30860731#5 30860731#6 30860728#0 30860728#1"/>
    </vehicle>
    <vehicle id="0.17" depart="72.84">
        <route edges="90088565#0 90088565#1 90088565#2 90088565#3 90088569 -60767675#4 -60767675#3 -60767675#2 -60767675#1 -60767675#0 30968190#0 30968190#1 30968190#2 30968190#3 8965859#0 8965859#1 8965859#2 8965859#3 8965859#4 30906781#0 30906781#1 30906781#2 30906781#3 30906781#4 30906781#5 30906781#6 30906781#7 30860729 30860731#5 30860731#6 30860728#0 30860728#1"/>
    </vehicle>
    <vehicle id="0.18" depart="77.13">
        <route edges="90088565#0 90088565#1 90088565#2 90088565#3 90088569 -60767675#4 -60767675#3 -60767675#2 -60767675#1 -60767675#0 30968190#0 30968190#1 30968190#2 30968190#3 8965859#0 8965859#1 8965859#2 8965859#3 8965859#4 30906781#0 30906781#1 30906781#2 30906781#3 30906781#4 30906781#5 30906781#6 30906781#7 30860729 30860731#5 30860731#6 30860728#0 30860728#1"/>
    </vehicle>
    <vehicle id="0.19" depart="81.42">
        <route edges="90088565#0 90088565#1 90088565#2 90088565#3 90088569 -60767675#4 -60767675#3 -60767675#2 -60767675#1 -60767675#0 30968190#0 30968190#1 30968190#2 30968190#3 8965859#0 8965859#1 8965859#2 8965859#3 8965859#4 30906781#0 30906781#1 30906781#2 30906781#3 30906781#4 30906781#5 30906781#6 30906781#7 30860729 30860731#5 30860731#6 30860728#0 30860728#1"/>
    </vehicle>
    <vehicle id="0.20" depart="85.70">
        <route edges="90088565#0 90088565#1 90088565#2 90088565#3 90088569 -60767675#4 -60767675#3 -60767675#2 -60767675#1 -60767675#0 30968190#0 30968190#1 30968190#2 30968190#3 8965859#0 8965859#1 8965859#2 8965859#3 8965859#4 30906781#0 30906781#1 30906781#2 30906781#3 30906781#4 30906781#5 30906781#6 30906781#7 30860729 30860731#5 30860731#6 30860728#0 30860728#1"/>
    </vehicle>
    <vehicle id="2.4" depart="85.71">
        <route edges="244107342#1 244107342#2 244107342#3 244107342#4 244107342#5 244107342#6 244107342#7 244107342#8 244107342#9 244107342#10 244107342#11 244107342#12 244107342#13 244107342#14 244107342#15 244107342#16"/>
    </vehicle>
    <vehicle id="4.2" depart="85.71">
        <route edges="-8969746#0 -240577405#2 -240577405#1 -240577405#0 -149436519 149436522 188696880#0 188696880#1 188696880#2 188696880#3 60767660#0 60767660#1 60767675#0 60767675#1 60767675#2 60767675#3 60767675#4 90088572#0 90088572#1 90088573#0 90088573#1 90088573#2 90088573#3"/>
    </vehicle>
    <vehicle id="5.2" depart="85.71">
        <route edges="90088565#0 90088565#1 90088565#2 90088565#3 90088569 -60767675#4 -60767675#3 -60767675#2 -60767675#1 -60767675#0 30968190#0 30968190#1 30968190#2 60767674 244107342#4 244107342#5 244107342#6 244107342#7 244107342#8 244107342#9 244107342#10 244107342#11 244107342#12 244107342#13 244107342#14 244107342#15 244107342#16"/>
    </vehicle>
    <vehicle id="0.21" depart="89.98">
        <route edges="90088565#0 90088565#1 90088565#2 90088565#3 90088569 -60767675#4 -60767675#3 -60767675#2 -60767675#1 -60767675#0 30968190#0 30968190#1 30968190#2 30968190#3 8965859#0 8965859#1 8965859#2 8965859#3 8965859#4 30906781#0 30906781#1 30906781#2 30906781#3 30906781#4 30906781#5 30906781#6 30906781#7 30860729 30860731#5 30860731#6 30860728#0 30860728#1"/>
    </vehicle>
    <vehicle id="0.22" depart="94.27">
        <route edges="90088565#0 90088565#1 90088565#2 90088565#3 90088569 -60767675#4 -60767675#3 -60767675#2 -60767675#1 -60767675#0 30968190#0 30968190#1 30968190#2 30968190#3 8965859#0 8965859#1 8965859#2 8965859#3 8965859#4 30906781#0 30906781#1 30906781#2 30906781#3 30906781#4 30906781#5 30906781#6 30906781#7 30860729 30860731#5 30860731#6 30860728#0 30860728#1"/>
    </vehicle>
    <vehicle id="0.23" depart="98.56">
        <route edges="90088565#0 90088565#1 90088565#2 90088565#3 90088569 -60767675#4 -60767675#3 -60767675#2 -60767675#1 -60767675#0 30968190#0 30968190#1 30968190#2 30968190#3 8965859#0 8965859#1 8965859#2 8965859#3 8965859#4 30906781#0 30906781#1 30906781#2 30906781#3 30906781#4 30906781#5 30906781#6 30906781#7 30860729 30860731#5 30860731#6 30860728#0 30860728#1"/>
    </vehicle>
    <vehicle id="0.24" depart="102.84">
        <route edges="90088565#0 90088565#1 90088565#2 90088565#3 90088569 -60767675#4 -60767675#3 -60767675#2 -60767675#1 -60767675#0 30968190#0 30968190#1 30968190#2 30968190#3 8965859#0 8965859#1 8965859#2 8965859#3 8965859#4 30906781#0 30906781#1 30906781#2 30906781#3 30906781#4 30906781#5 30906781#6 30906781#7 30860729 30860731#5 30860731#6 30860728#0 30860728#1"/>
    </vehicle>
    <vehicle id="0.25" depart="107.12">
        <route edges="90088565#0 90088565#1 90088565#2 90088565#3 90088569 -60767675#4 -60767675#3 -60767675#2 -60767675#1 -60767675#0 30968190#0 30968190#1 30968190#2 30968190#3 8965859#0 8965859#1 8965859#2 8965859#3 8965859#4 30906781#0 30906781#1 30906781#2 30906781#3 30906781#4 30906781#5 30906781#6 30906781#7 30860729 30860731#5 30860731#6 30860728#0 30860728#1"/>
    </vehicle>
    <vehicle id="2.5" depart="107.14">
        <route edges="244107342#1 244107342#2 244107342#3 244107342#4 244107342#5 244107342#6 244107342#7 244107342#8 244107342#9 244107342#10 244107342#11 244107342#12 244107342#13 244107342#14 244107342#15 244107342#16"/>
    </vehicle>
    <vehicle id="0.26" depart="111.41">
        <route edges="90088565#0 90088565#1 90088565#2 90088565#3 90088569 -60767675#4 -60767675#3 -60767675#2 -60767675#1 -60767675#0 30968190#0 30968190#1 30968190#2 30968190#3 8965859#0 8965859#1 8965859#2 8965859#3 8965859#4 30906781#0 30906781#1 30906781#2 30906781#3 30906781#4 30906781#5 30906781#6 30906781#7 30860729 30860731#5 30860731#6 30860728#0 30860728#1"/>
    </vehicle>
    <vehicle id="0.27" depart="115.69">
        <route edges="90088565#0 90088565#1 90088565#2 90088565#3 90088569 -60767675#4 -60767675#3 -60767675#2 -60767675#1 -60767675#0 30968190#0 30968190#1 30968190#2 30968190#3 8965859#0 8965859#1 8965859#2 8965859#3 8965859#4 30906781#0 30906781#1 30906781#2 30906781#3 30906781#4 30906781#5 30906781#6 30906781#7 30860729 30860731#5 30860731#6 30860728#0 30860728#1"/>
    </vehicle>
    <vehicle id="0.28" depart="119.98">
        <route edges="90088565#0 90088565#1 90088565#2 90088565#3 90088569 -60767675#4 -60767675#3 -60767675#2 -60767675#1 -60767675#0 30968190#0 30968190#1 30968190#2 30968190#3 8965859#0 8965859#1 8965859#2 8965859#3 8965859#4 30906781#0 30906781#1 30906781#2 30906781#3 30906781#4 30906781#5 30906781#6 30906781#7 30860729 30860731#5 30860731#6 30860728#0 30860728#1"/>
    </vehicle>
    <vehicle id="6.2" depart="120.00">
        <route edges="30860753#0 30860753#1 30860731#1 30860731#2 30860731#3 30860730 -30906781#7 -30906781#6 -30906781#5 -30906781#4 -30906781#3 -30906781#2 -30906781#1 -30906781#0 30906778 231369969 188696880#0 188696880#1 188696880#2 188696880#3 188696885#0 188696885#1"/>
    </vehicle>
    <vehicle id="0.29" depart="124.27">
        <route edges="90088565#0 90088565#1 90088565#2 90088565#3 90088569 -60767675#4 -60767675#3 -60767675#2 -60767675#1 -60767675#0 30968190#0 30968190#1 30968190#2 30968190#3 8965859#0 8965859#1 8965859#2 8965859#3 8965859#4 30906781#0 30906781#1 30906781#2 30906781#3 30906781#4 30906781#5 30906781#6 30906781#7 30860729 30860731#5 30860731#6 30860728#0 30860728#1"/>
    </vehicle>
    <vehicle id="0.30" depart="128.55">
        <route edges="90088565#0 90088565#1 90088565#2 90088565#3 90088569 -60767675#4 -60767675#3 -60767675#2 -60767675#1 -60767675#0 30968190#0 30968190#1 30968190#2 30968190#3 8965859#0 8965859#1 8965859#2 8965859#3 8965859#4 30906781#0 30906781#1 30906781#2 30906781#3 30906781#4 30906781#5 30906781#6 30906781#7 30860729 30860731#5 30860731#6 30860728#0 30860728#1"/>
    </vehicle>
    <vehicle id="2.6" depart="128.57">
        <route edges="244107342#1 244107342#2 244107342#3 244107342#4 244107342#5 244107342#6 244107342#7 244107342#8 244107342#9 244107342#10 244107342#11 244107342#12 244107342#13 244107342#14 244107342#15 244107342#16"/>
    </vehicle>
    <vehicle id="4.3" depart="128.57">
        <route edges="-8969746#0 -240577405#2 -240577405#1 -240577405#0 -149436519 149436522 188696880#0 188696880#1 188696880#2 188696880#3 60767660#0 60767660#1 60767675#0 60767675#1 60767675#2 60767675#3 60767675#4 90088572#0 90088572#1 90088573#0 90088573#1 90088573#2 90088573#3"/>
    </vehicle>
    <vehicle id="5.3" depart="128.57">
        <route edges="90088565#0 90088565#1 90088565#2 90088565#3 90088569 -60767675#4 -60767675#3 -60767675#2 -60767675#1 -60767675#0 30968190#0 30968190#1 30968190#2 60767674 244107342#4 244107342#5 244107342#6 244107342#7 244107342#8 244107342#9 244107342#10 244107342#11 244107342#12 244107342#13 244107342#14 244107342#15 244107342#16"/>
    </vehicle>
    <vehicle id="0.31" depart="132.84">
        <route edges="90088565#0 90088565#1 90088565#2 90088565#3 90088569 -60767675#4 -60767675#3 -60767675#2 -60767675#1 -60767675#0 30968190#0 30968190#1 30968190#2 30968190#3 8965859#0 8965859#1 8965859#2 8965859#3 8965859#4 30906781#0 30906781#1 30906781#2 30906781#3 30906781#4 30906781#5 30906781#6 30906781#7 30860729 30860731#5 30860731#6 30860728#0 30860728#1"/>
    </vehicle>
    <vehicle id="0.32" depart="137.12">
        <route edges="90088565#0 90088565#1 90088565#2 90088565#3 90088569 -60767675#4 -60767675#3 -60767675#2 -60767675#1 -60767675#0 30968190#0 30968190#1 30968190#2 30968190#3 8965859#0 8965859#1 8965859#2 8965859#3 8965859#4 30906781#0 30906781#1 30906781#2 30906781#3 30906781#4 30906781#5 30906781#6 30906781#7 30860729 30860731#5 30860731#6 30860728#0 30860728#1"/>
    </vehicle>
    <vehicle id="0.33" depart="141.41">
        <route edges="90088565#0 90088565#1 90088565#2 90088565#3 90088569 -60767675#4 -60767675#3 -60767675#2 -60767675#1 -60767675#0 30968190#0 30968190#1 30968190#2 30968190#3 8965859#0 8965859#1 8965859#2 8965859#3 8965859#4 30906781#0 30906781#1 30906781#2 30906781#3 30906781#4 30906781#5 30906781#6 30906781#7 30860729 30860731#5 30860731#6 30860728#0 30860728#1"/>
    </vehicle>
    <vehicle id="0.34" depart="145.69">
        <route edges="90088565#0 90088565#1 90088565#2 90088565#3 90088569 -60767675#4 -60767675#3 -60767675#2 -60767675#1 -60767675#0 30968190#0 30968190#1 30968190#2 30968190#3 8965859#0 8965859#1 8965859#2 8965859#3 8965859#4 30906781#0 30906781#1 30906781#2 30906781#3 30906781#4 30906781#5 30906781#6 30906781#7 30860729 30860731#5 30860731#6 30860728#0 30860728#1"/>
    </vehicle>
    <vehicle id="0.35" depart="149.97">
        <route edges="90088565#0 90088565#1 90088565#2 90088565#3 90088569 -60767675#4 -60767675#3 -60767675#2 -60767675#1 -60767675#0 30968190#0 30968190#1 30968190#2 30968190#3 8965859#0 8965859#1 8965859#2 8965859#3 8965859#4 30906781#0 30906781#1 30906781#2 30906781#3 30906781#4 30906781#5 30906781#6 30906781#7 30860729 30860731#5 30860731#6 30860728#0 30860728#1"/>
    </vehicle>
    <vehicle id="2.7" depart="150.00">
        <route edges="244107342#1 244107342#2 244107342#3 244107342#4 244107342#5 244107342#6 244107342#7 244107342#8 244107342#9 244107342#10 244107342#11 244107342#12 244107342#13 244107342#14 244107342#15 244107342#16"/>
    </vehicle>
    <vehicle id="0.36" depart="154.26">
        <route edges="90088565#0 90088565#1 90088565#2 90088565#3 90088569 -60767675#4 -60767675#3 -60767675#2 -60767675#1 -60767675#0 30968190#0 30968190#1 30968190#2 30968190#3 8965859#0 8965859#1 8965859#2 8965859#3 8965859#4 30906781#0 30906781#1 30906781#2 30906781#3 30906781#4 30906781#5 30906781#6 30906781#7 30860729 30860731#5 30860731#6 30860728#0 30860728#1"/>
    </vehicle>
    <vehicle id="0.37" depart="158.54">