<?xml version="1.0" encoding="UTF-8"?>

<!-- generated on Fri Nov 22 18:56:49 2013 by SUMO duarouter Version 0.17.1
<?xml version="1.0" encoding="UTF-8"?>

<configuration xmlns:xsi="http://www.w3.org/2001/XMLSchema-instance" xsi:noNamespaceSchemaLocation="http://sumo.sf.net/xsd/duarouterConfiguration.xsd">

    <input>
        <net-file value="test.net.xml"/>
        <trip-files value="test.trip.xml"/>
    </input>

    <output>
        <output-file value="test.rou.xlm"/>
    </output>

</configuration>
-->

<routes xmlns:xsi="http://www.w3.org/2001/XMLSchema-instance" xsi:noNamespaceSchemaLocation="http://sumo.sf.net/xsd/routes_file.xsd">
    <vehicle id="0" depart="0.00">
        <route edges="25795756#0 244107342#13 38085570#3 91928200#4 91928200#5 91928200#6 91928200#7 91928200#8 60767670 8965859#1 8965859#2 8965859#3 8965859#4 30906781#0 -30906781#0 30906778 186521557 149436519 240577405#0 240577405#1 240577405#2 240577405#3 240577405#4 240577405#5 240577403#0 240577403#1 148259772#0 148259772#1 148259772#2 95466796#0 -95466796#0"/>
    </vehicle>
    <vehicle id="1" depart="3.00">
        <route edges="8939836#2 -65592869#7 -65592869#6 -65592869#5 -30906781#4 -30906781#3 -30906781#2 -30906781#1 -30906781#0 30906778 231369969 188696880#0 32315631#2 133164448#1 133164448#2 152943929#1 152943929#2 -152943929#2"/>
    </vehicle>
    <vehicle id="2" depart="6.00">
        <route edges="-8969746#7 8969746#7 8969746#8 8969746#9 148393815#0 148393815#1 148393815#2 30860802 30860731#3 30860731#4 30860731#5 65592874#0 65592874#1 8939836#4 8939836#5 8960886#6 166879605#0 -166879607#2+166879605#1 -166879607#1 -166879607#0 166879607#0"/>
    </vehicle>
    <vehicle id="3" depart="9.00">
        <route edges="-8960886#1 8960886#1 -8969746#12 -8969746#11 -8969746#10 148393815#0 148393815#1 148393815#2 30860802 30860731#3 30860730 -30906781#7 -30906781#6 -30906781#5 65592869#5 -65592869#5"/>
    </vehicle>
    <vehicle id="4" depart="12.00">
        <route edges="8953778 -60767669#1 -8957215#2 -8957215#1 -8957215#0 27133566#1"/>
    </vehicle>
    <vehicle id="5" depart="15.00">
        <route edges="-30906781#7 -30906781#6 -30906781#5 -30906781#4 -30906781#3 -30906781#2 -30906781#1 -30906781#0 30906778 231369969 188696880#0 188696880#1 188696880#2 188696880#3 60767660#0 60767660#1 60767675#0 60767675#1 60767675#2 -8964782#10 -8964782#9 -8964782#8 -8964782#7 -8964782#6 -8964782#5 56396045#0 56395952"/>
    </vehicle>
    <vehicle id="6" depart="18.00">
        <route edges="92330981 -92330981 -92330989#0 -8945233#2 -8945233#1 -8945233#0 8965859#4 30906781#0 -30906781#0 30906778 231369969 188696880#0 188696880#1 188696880#2 188696880#3 60767660#0 60767660#1 60767675#0 60767675#1 60767675#2 -8964782#10 -8964782#9 -8964782#8 -8964782#7 -8964782#6 -56395919#1 -56395919#0"/>
    </vehicle>
    <vehicle id="7" depart="21.00">
        <route edges="144330038 -144330038 -30906781#0 30906778 231369969 188696880#0 188696880#1 188696880#2 188696880#3 60767660#0 60767660#1 60767675#0 60767675#1 8956275 8946965#4 8946965#5 8946965#6 86713609#0 86713609#1 8947120#0 -8968796 8929035#1"/>
    </vehicle>
    <vehicle id="8" depart="24.00">
        <route edges="60767673#1 -60767673#1 -60767658 -8951237 -86713609#0 -8946965#6 -8946965#5 -8946965#4 -8956275 -60767675#1 -60767675#0 30968190#0 30968190#1 30968190#2 30968190#3 8965859#0 8965859#1 8965859#2 8965859#3 8945233#0 8945233#1 8945233#2 -112358427#6 -92330980"/>
    </vehicle>
    <vehicle id="9" depart="27.00">
        <route edges="38085570#2 38085570#3 91928200#4 91928200#5 91928200#6 91928200#7 91928200#8 91928200#9 60767660#0 60767660#1 60767675#0 60767675#1 60767675#2 60767675#3 60767675#4 90088572#0 90088572#1 90088573#0 90088573#1 -90088566#2 -90088566#1 237051272#0 -237051272#0"/>
    </vehicle>
    <vehicle id="10" depart="30.00">
        <route edges="-91933524#0 -95466796#0 95466795#0 95466795#1 95466795#2 -240577403#1 22372398#0 8956768#0"/>
    </vehicle>
    <vehicle id="11" depart="33.00">
        <route edges="-8969746#5 -8969746#4 -8969746#3 -8969746#2 -8969746#1 -8969746#0 -240577405#2 -240577405#1 -240577405#0 -149436519 149436522 188696880#0 188696880#1 188696880#2 -133164444 133164444"/>
    </vehicle>
    <vehicle id="12" depart="36.00">
        <route edges="8948256#1 23926328#1 41947935#2 41947935#3 -8939106#1 -8939106#0 -86713609#2 -86713609#1 -86713609#0 -8946965#6 -8946965#5 -8946965#4 -8956275 -60767675#1 -60767675#0 30968190#0 30968190#1 30968190#2 30968190#3 8965859#0 8965859#1 8965859#2 8965859#3 8965859#4 30906781#0 -30906781#0 30906778 186521557 149436519 240577405#0 240577405#1 240577405#2 8969746#0 8969746#1 8969746#2"/>
    </vehicle>
    <vehicle id="13" depart="39.00">
        <route edges="133164446#1 -133164446#1 133164448#0 133164448#1 206031847#2 206031847#3 8965859#2 8965859#3 8965859#4 30906781#0 30906781#1 30906781#2 30906781#3 30906781#4 -30906781#4"/>
    </vehicle>
    <vehicle id="14" depart="42.00">
        <route edges="8969746#2 -8969746#2 -8969746#1 -8969746#0 -240577405#2 -240577405#1 -240577405#0 -149436519 149436522 188696880#0 188696880#1 188696880#2 188696880#3 60767660#0 60767660#1 60767675#0 60767675#1 8956275 8946965#4 8946965#5 8946965#6 86713609#0 86713609#1 8947120#0 -8968796"/>
    </vehicle>
</routes>
