<?xml version="1.0" encoding="UTF-8"?>

<!-- generated on Fri Nov 15 14:11:34 2013 by SUMO netconvert Version 0.17.1
<?xml version="1.0" encoding="UTF-8"?>

<configuration xmlns:xsi="http://www.w3.org/2001/XMLSchema-instance" xsi:noNamespaceSchemaLocation="http://sumo.sf.net/xsd/netconvertConfiguration.xsd">

    <input>
        <osm-files value="map.osm"/>
    </input>

    <output>
        <output-file value="osm.net.xml"/>
    </output>

    <projection>
        <proj.utm value="true"/>
    </projection>

</configuration>
-->

<net version="0.13" xmlns:xsi="http://www.w3.org/2001/XMLSchema-instance" xsi:noNamespaceSchemaLocation="http://sumo.sf.net/xsd/net_file.xsd">

    <location netOffset="-576106.42,-4138078.86" convBoundary="0.00,0.00,7996.22,4619.32" origBoundary="-122.139805,37.385655,-122.049964,37.427977" projParameter="+proj=utm +zone=10 +ellps=WGS84 +datum=WGS84 +units=m +no_defs"/>

    <edge id=":1341677687_0" function="internal">
        <lane id=":1341677687_0_0" index="0" speed="55.56" length="5.04" shape="5512.93,1038.26 5511.78,1039.04 5511.17,1039.99 5511.10,1041.13 5511.58,1042.43"/>
    </edge>
    <edge id=":1341677687_1" function="internal">
        <lane id=":1341677687_1_0" index="0" speed="83.33" length="9.60" shape="5512.93,1038.26 5504.29,1042.45"/>
    </edge>
    <edge id=":1341677687_2" function="internal">
        <lane id=":1341677687_2_0" index="0" speed="27.78" length="7.02" shape="5508.71,1036.96 5508.66,1043.98"/>
    </edge>
    <edge id=":1341677687_3" function="internal">
        <lane id=":1341677687_3_0" index="0" speed="55.56" length="4.87" shape="5505.78,1038.47 5506.19,1039.70 5506.08,1040.77 5505.45,1041.69 5504.29,1042.45"/>
    </edge>
    <edge id=":1465199640_0" function="internal">
        <lane id=":1465199640_0_0" index="0" speed="8.33" length="7.98" shape="5548.12,981.99 5545.28,979.69 5543.59,978.69 5543.04,979.00 5543.64,980.62"/>
    </edge>
    <edge id=":1465199640_1" function="internal">
        <lane id=":1465199640_1_0" index="0" speed="8.33" length="2.63" shape="5548.12,981.99 5548.36,980.38 5548.98,979.59"/>
    </edge>
    <edge id=":1465199640_4" function="internal">
        <lane id=":1465199640_4_0" index="0" speed="8.33" length="2.63" shape="5548.98,979.59 5549.99,979.61 5551.38,980.45"/>
    </edge>
    <edge id=":1465199640_2" function="internal">
        <lane id=":1465199640_2_0" index="0" speed="8.33" length="24.43" shape="5537.67,976.25 5535.82,971.30 5537.49,970.34 5542.68,973.39 5551.38,980.45"/>
    </edge>
    <edge id=":1465199640_3" function="internal">
        <lane id=":1465199640_3_0" index="0" speed="8.33" length="8.97" shape="5537.67,976.25 5540.80,975.10 5542.84,975.44 5543.79,977.28 5543.72,978.77"/>
    </edge>
    <edge id=":1465199640_5" function="internal">
        <lane id=":1465199640_5_0" index="0" speed="8.33" length="1.85" shape="5543.72,978.77 5543.64,980.62"/>
    </edge>
    <edge id=":1465199670_0" function="internal">
        <lane id=":1465199670_0_0" index="0" speed="8.33" length="0.96" shape="5617.74,980.06 5618.26,980.87"/>
    </edge>
    <edge id=":1465199670_1" function="internal">
        <lane id=":1465199670_1_0" index="0" speed="8.33" length="21.25" shape="5617.74,980.06 5615.20,977.48 5611.32,977.33 5606.11,979.60 5599.56,984.30"/>
    </edge>
    <edge id=":1465199670_2" function="internal">
        <lane id=":1465199670_2_0" index="0" speed="8.33" length="28.20" shape="5617.74,980.06 5609.43,977.48 5605.75,973.53 5606.70,968.22 5612.28,961.54"/>
    </edge>
    <edge id=":1465199670_3" function="internal">
        <lane id=":1465199670_3_0" index="0" speed="8.33" length="17.86" shape="5603.92,976.45 5608.42,971.63 5611.32,967.55 5612.60,964.18 5612.28,961.54"/>
    </edge>
    <edge id=":1465199670_4" function="internal">
        <lane id=":1465199670_4_0" index="0" speed="8.33" length="15.00" shape="5603.92,976.45 5618.26,980.87"/>
    </edge>
    <edge id=":1465199670_5" function="internal">
        <lane id=":1465199670_5_0" index="0" speed="8.33" length="13.12" shape="5603.92,976.45 5605.78,980.05 5605.67,982.56 5603.59,983.97 5599.56,984.30"/>
    </edge>
    <edge id=":1465199670_6" function="internal">
        <lane id=":1465199670_6_0" index="0" speed="8.33" length="32.57" shape="5598.29,986.59 5607.19,981.26 5612.49,975.30 5614.18,968.73 5612.28,961.54"/>
    </edge>
    <edge id=":1465199670_7" function="internal">
        <lane id=":1465199670_7_0" index="0" speed="8.33" length="2.62" shape="5598.29,986.59 5599.56,984.30"/>
    </edge>
    <edge id=":1465199670_8" function="internal">
        <lane id=":1465199670_8_0" index="0" speed="8.33" length="30.34" shape="5598.29,986.59 5601.13,977.67 5605.41,973.74 5611.12,974.81 5618.26,980.87"/>
    </edge>
    <edge id=":1465199672_0" function="internal">
        <lane id=":1465199672_0_0" index="0" speed="45.83" length="4.86" shape="5619.41,983.45 5618.67,982.39 5617.75,981.82 5616.64,981.75 5615.34,982.17"/>
    </edge>
    <edge id=":1465199672_1" function="internal">
        <lane id=":1465199672_1_0" index="0" speed="8.33" length="3.57" shape="5619.41,983.45 5617.83,980.24"/>
    </edge>
    <edge id=":1465199672_2" function="internal">
        <lane id=":1465199672_2_0" index="0" speed="8.33" length="4.87" shape="5619.41,983.45 5619.39,981.95 5619.84,981.13 5620.76,981.00 5622.16,981.56"/>
    </edge>
    <edge id=":1465199672_3" function="internal">
        <lane id=":1465199672_3_0" index="0" speed="45.83" length="4.47" shape="5623.89,978.03 5622.73,978.76 5622.06,979.59 5621.87,980.52 5622.16,981.56"/>
    </edge>
    <edge id=":1465199672_4" function="internal">
        <lane id=":1465199672_4_0" index="0" speed="83.33" length="9.50" shape="5623.89,978.03 5615.34,982.17"/>
    </edge>
    <edge id=":1465199672_5" function="internal">
        <lane id=":1465199672_5_0" index="0" speed="45.83" length="6.52" shape="5623.89,978.03 5621.35,979.22 5619.49,979.98 5618.32,980.32 5617.83,980.24"/>
    </edge>
    <edge id=":1465199672_6" function="internal">
        <lane id=":1465199672_6_0" index="0" speed="8.33" length="3.93" shape="5620.42,978.03 5622.16,981.56"/>
    </edge>
    <edge id=":1465199672_7" function="internal">
        <lane id=":1465199672_7_0" index="0" speed="45.83" length="6.87" shape="5620.42,978.03 5620.35,978.80 5619.49,979.74 5617.81,980.87 5615.34,982.17"/>
    </edge>
    <edge id=":1465199672_8" function="internal">
        <lane id=":1465199672_8_0" index="0" speed="8.33" length="4.97" shape="5620.42,978.03 5620.60,979.55 5620.23,980.43 5619.31,980.66 5617.83,980.24"/>
    </edge>
    <edge id=":1465199685_0" function="internal">
        <lane id=":1465199685_0_0" index="0" speed="45.83" length="4.85" shape="5621.82,988.43 5621.09,987.37 5620.18,986.80 5619.07,986.73 5617.76,987.17"/>
    </edge>
    <edge id=":1465199685_1" function="internal">
        <lane id=":1465199685_1_0" index="0" speed="8.33" length="5.33" shape="5621.82,988.43 5619.50,983.63"/>
    </edge>
    <edge id=":1465199685_2" function="internal">
        <lane id=":1465199685_2_0" index="0" speed="8.33" length="6.31" shape="5621.82,988.43 5620.78,986.78 5620.73,985.57 5621.67,984.81 5623.59,984.49"/>
    </edge>
    <edge id=":1465199685_3" function="internal">
        <lane id=":1465199685_3_0" index="0" speed="45.83" length="3.11" shape="5626.31,983.00 5625.10,983.60 5624.24,984.05 5623.74,984.35 5623.59,984.49"/>
    </edge>
    <edge id=":1465199685_4" function="internal">
        <lane id=":1465199685_4_0" index="0" speed="83.33" length="9.51" shape="5626.31,983.00 5617.76,987.17"/>
    </edge>
    <edge id=":1465199685_5" function="internal">
        <lane id=":1465199685_5_0" index="0" speed="45.83" length="7.41" shape="5626.31,983.00 5623.73,984.09 5621.73,984.56 5620.32,984.40 5619.50,983.63"/>
    </edge>
    <edge id=":1465199685_6" function="internal">
        <lane id=":1465199685_6_0" index="0" speed="8.33" length="3.06" shape="5622.25,981.74 5623.59,984.49"/>
    </edge>
    <edge id=":1465199685_7" function="internal">
        <lane id=":1465199685_7_0" index="0" speed="45.83" length="7.73" shape="5622.25,981.74 5622.45,983.06 5621.77,984.40 5620.21,985.77 5617.76,987.17"/>
    </edge>
    <edge id=":1465199685_8" function="internal">
        <lane id=":1465199685_8_0" index="0" speed="8.33" length="4.87" shape="5622.25,981.74 5622.27,983.24 5621.81,984.06 5620.89,984.19 5619.50,983.63"/>
    </edge>
    <edge id=":1465199686_0" function="internal">
        <lane id=":1465199686_0_0" index="0" speed="8.33" length="4.82" shape="5628.74,984.69 5630.22,984.53 5631.07,984.90 5631.28,985.79 5630.86,987.22"/>
    </edge>
    <edge id=":1465199700_0" function="internal">
        <lane id=":1465199700_0_0" index="0" speed="8.33" length="9.75" shape="5629.97,987.96 5621.84,993.34"/>
    </edge>
    <edge id=":1465199700_1" function="internal">
        <lane id=":1465199700_1_0" index="0" speed="8.33" length="9.60" shape="5629.97,987.96 5627.22,989.87 5624.96,990.62 5623.19,990.20 5621.90,988.61"/>
    </edge>
    <edge id=":1465199700_2" function="internal">
        <lane id=":1465199700_2_0" index="0" speed="8.33" length="4.82" shape="5629.97,987.96 5628.49,988.12 5627.65,987.75 5627.44,986.85 5627.86,985.42"/>
    </edge>
    <edge id=":1465199700_3" function="internal">
        <lane id=":1465199700_3_0" index="0" speed="8.33" length="5.18" shape="5623.68,984.67 5624.48,985.85 5625.45,986.37 5626.57,986.23 5627.86,985.42"/>
    </edge>
    <edge id=":1465199700_4" function="internal">
        <lane id=":1465199700_4_0" index="0" speed="8.33" length="10.10" shape="5623.68,984.67 5624.72,987.64 5624.77,990.08 5623.80,991.97 5621.84,993.34"/>
    </edge>
    <edge id=":1465199700_5" function="internal">
        <lane id=":1465199700_5_0" index="0" speed="8.33" length="6.31" shape="5623.68,984.67 5624.71,986.32 5624.76,987.53 5623.82,988.29 5621.90,988.61"/>
    </edge>
    <edge id=":1465199700_6" function="internal">
        <lane id=":1465199700_6_0" index="0" speed="8.33" length="3.16" shape="5619.80,990.63 5620.88,990.08 5621.59,989.56 5621.93,989.07 5621.90,988.61"/>
    </edge>
    <edge id=":1465199700_7" function="internal">
        <lane id=":1465199700_7_0" index="0" speed="8.33" length="9.60" shape="5619.80,990.63 5627.86,985.42"/>
    </edge>
    <edge id=":1465199700_8" function="internal">
        <lane id=":1465199700_8_0" index="0" speed="8.33" length="4.95" shape="5619.80,990.63 5621.32,990.54 5622.17,990.96 5622.34,991.89 5621.84,993.34"/>
    </edge>
    <edge id=":1465199716_0" function="internal">
        <lane id=":1465199716_0_0" index="0" speed="8.33" length="4.04" shape="5619.61,998.87 5617.92,995.20"/>
    </edge>
    <edge id=":1465199716_1" function="internal">
        <lane id=":1465199716_1_0" index="0" speed="18.06" length="6.78" shape="5619.61,998.87 5619.73,998.16 5620.63,997.25 5622.31,996.15 5624.77,994.86"/>
    </edge>
    <edge id=":1465199716_2" function="internal">
        <lane id=":1465199716_2_0" index="0" speed="8.33" length="4.82" shape="5619.61,998.87 5619.87,997.40 5620.46,996.69 5621.38,996.74 5622.63,997.54"/>
    </edge>
    <edge id=":1465199716_3" function="internal">
        <lane id=":1465199716_3_0" index="0" speed="18.06" length="3.99" shape="5621.24,994.50 5621.76,995.16 5622.52,995.44 5623.53,995.34 5624.77,994.86"/>
    </edge>
    <edge id=":1465199716_4" function="internal">
        <lane id=":1465199716_4_0" index="0" speed="8.33" length="3.34" shape="5621.24,994.50 5622.63,997.54"/>
    </edge>
    <edge id=":1465199716_5" function="internal">
        <lane id=":1465199716_5_0" index="0" speed="8.33" length="4.96" shape="5621.24,994.50 5620.67,995.92 5619.93,996.51 5619.01,996.27 5617.92,995.20"/>
    </edge>
    <edge id=":1465199716_6" function="internal">
        <lane id=":1465199716_6_0" index="0" speed="18.06" length="4.75" shape="5616.23,999.02 5617.40,998.26 5618.07,997.37 5618.25,996.35 5617.92,995.20"/>
    </edge>
    <edge id=":1465199716_7" function="internal">
        <lane id=":1465199716_7_0" index="0" speed="27.78" length="9.51" shape="5616.23,999.02 5624.77,994.86"/>
    </edge>
    <edge id=":1465199716_8" function="internal">
        <lane id=":1465199716_8_0" index="0" speed="18.06" length="6.88" shape="5616.23,999.02 5618.81,997.87 5620.74,997.24 5622.01,997.13 5622.63,997.54"/>
    </edge>
    <edge id=":1465199720_0" function="internal">
        <lane id=":1465199720_0_0" index="0" speed="8.33" length="4.82" shape="5530.25,1046.91 5531.71,1047.19 5532.40,1047.79 5532.34,1048.71 5531.52,1049.95"/>
    </edge>
    <edge id=":1465199721_0" function="internal">
        <lane id=":1465199721_0_0" index="0" speed="18.06" length="2.73" shape="5520.92,1054.37 5519.84,1054.80 5519.05,1055.07 5518.55,1055.18 5518.33,1055.12"/>
    </edge>
    <edge id=":1465199721_1" function="internal">
        <lane id=":1465199721_1_0" index="0" speed="8.33" length="4.82" shape="5520.92,1054.37 5519.46,1054.09 5518.76,1053.49 5518.82,1052.56 5519.65,1051.33"/>
    </edge>
    <edge id=":1465199721_2" function="internal">
        <lane id=":1465199721_2_0" index="0" speed="18.06" length="4.89" shape="5515.53,1049.86 5516.31,1050.93 5517.26,1051.53 5518.37,1051.66 5519.65,1051.33"/>
    </edge>
    <edge id=":1465199721_3" function="internal">
        <lane id=":1465199721_3_0" index="0" speed="27.78" length="5.96" shape="5515.53,1049.86 5518.33,1055.12"/>
    </edge>
    <edge id=":1465199721_4" function="internal">
        <lane id=":1465199721_4_0" index="0" speed="27.78" length="5.96" shape="5512.62,1051.41 5515.42,1056.67"/>
    </edge>
    <edge id=":1624206674_0" function="internal">
        <lane id=":1624206674_0_0" index="0" speed="27.78" length="12.97" shape="5487.70,984.99 5486.71,988.58 5486.38,991.88 5486.72,994.89 5487.72,997.61"/>
    </edge>
    <edge id=":1624206674_1" function="internal">
        <lane id=":1624206674_1_0" index="0" speed="27.78" length="14.96" shape="5484.22,984.93 5483.24,988.74 5483.04,992.43 5483.62,996.00 5484.98,999.46"/>
    </edge>
    <edge id=":1624206674_2" function="internal">
        <lane id=":1624206674_2_0" index="0" speed="27.78" length="14.07" shape="5479.83,985.99 5482.33,989.34 5484.10,991.61 5485.70,993.97 5487.72,997.61"/>
    </edge>
    <edge id=":1624206674_3" function="internal">
        <lane id=":1624206674_3_0" index="0" speed="27.78" length="14.07" shape="5477.10,987.84 5479.60,991.19 5481.36,993.45 5482.97,995.81 5484.98,999.46"/>
    </edge>
    <edge id=":1657109839_0" function="internal">
        <lane id=":1657109839_0_0" index="0" speed="8.33" length="4.82" shape="5622.71,997.72 5622.46,999.19 5621.87,999.90 5620.94,999.85 5619.69,999.05"/>
    </edge>
    <edge id=":2126940489_0" function="internal">
        <lane id=":2126940489_0_0" index="0" speed="55.56" length="6.25" shape="5496.50,1050.37 5495.27,1049.12 5493.94,1048.45 5492.53,1048.37 5491.02,1048.87"/>
    </edge>
    <edge id=":2126940489_1" function="internal">
        <lane id=":2126940489_1_0" index="0" speed="27.78" length="6.46" shape="5499.12,1048.36 5493.18,1045.83"/>
    </edge>
    <edge id=":2126940489_2" function="internal">
        <lane id=":2126940489_2_0" index="0" speed="83.33" length="10.34" shape="5500.33,1044.36 5497.60,1045.66 5495.65,1046.58 5493.72,1047.51 5491.02,1048.87"/>
    </edge>
    <edge id=":2126940489_3" function="internal">
        <lane id=":2126940489_3_0" index="0" speed="55.56" length="4.86" shape="5500.33,1044.36 5498.87,1044.91 5497.65,1045.02 5496.67,1044.72 5495.92,1043.99"/>
    </edge>
    <edge id=":2461159286_0" function="internal">
        <lane id=":2461159286_0_0" index="0" speed="20.12" length="0.10" shape="7776.80,34.68 7776.80,34.68"/>
    </edge>
    <edge id=":2461159286_1" function="internal">
        <lane id=":2461159286_1_0" index="0" speed="20.12" length="0.10" shape="7778.03,37.74 7778.03,37.74"/>
    </edge>
    <edge id=":2471271130_0" function="internal">
        <lane id=":2471271130_0_0" index="0" speed="20.12" length="0.10" shape="7276.15,234.81 7276.15,234.81"/>
    </edge>
    <edge id=":2471271130_1" function="internal">
        <lane id=":2471271130_1_0" index="0" speed="20.12" length="0.10" shape="7277.32,237.90 7277.33,237.90"/>
    </edge>
    <edge id=":2471273114_0" function="internal">
        <lane id=":2471273114_0_0" index="0" speed="20.12" length="0.10" shape="6283.73,682.75 6283.73,682.75"/>
    </edge>
    <edge id=":2471273114_1" function="internal">
        <lane id=":2471273114_1_0" index="0" speed="20.12" length="0.10" shape="6285.15,685.73 6285.15,685.73"/>
    </edge>
    <edge id=":2471273115_0" function="internal">
        <lane id=":2471273115_0_0" index="0" speed="20.12" length="0.10" shape="6306.98,697.06 6306.98,697.06"/>
    </edge>
    <edge id=":2471273115_1" function="internal">
        <lane id=":2471273115_1_0" index="0" speed="20.12" length="0.10" shape="6305.48,694.11 6305.48,694.11"/>
    </edge>
    <edge id=":2471274184_0" function="internal">
        <lane id=":2471274184_0_0" index="0" speed="27.78" length="0.10" shape="5518.91,1056.20 5518.91,1056.20"/>
    </edge>
    <edge id=":2471274184_1" function="internal">
        <lane id=":2471274184_1_0" index="0" speed="27.78" length="0.10" shape="5515.99,1057.75 5515.99,1057.74"/>
    </edge>
    <edge id=":2471274187_0" function="internal">
        <lane id=":2471274187_0_0" index="0" speed="20.12" length="0.10" shape="5503.86,1077.16 5503.86,1077.16"/>
    </edge>
    <edge id=":2471274187_1" function="internal">
        <lane id=":2471274187_1_0" index="0" speed="20.12" length="0.10" shape="5505.25,1080.15 5505.25,1080.15"/>
    </edge>
    <edge id=":2471274189_0" function="internal">
        <lane id=":2471274189_0_0" index="0" speed="20.12" length="0.10" shape="5539.65,1081.20 5539.65,1081.20"/>
    </edge>
    <edge id=":2471274189_1" function="internal">
        <lane id=":2471274189_1_0" index="0" speed="20.12" length="0.10" shape="5538.21,1078.24 5538.21,1078.24"/>
    </edge>
    <edge id=":2471274194_0" function="internal">
        <lane id=":2471274194_0_0" index="0" speed="27.78" length="0.10" shape="5525.58,1095.48 5525.58,1095.48"/>
    </edge>
    <edge id=":2471274194_1" function="internal">
        <lane id=":2471274194_1_0" index="0" speed="27.78" length="0.10" shape="5528.55,1094.04 5528.55,1094.04"/>
    </edge>
    <edge id=":2471274510_0" function="internal">
        <lane id=":2471274510_0_0" index="0" speed="20.12" length="0.10" shape="5206.62,1221.66 5206.62,1221.66"/>
    </edge>
    <edge id=":2471274510_1" function="internal">
        <lane id=":2471274510_1_0" index="0" speed="20.12" length="0.10" shape="5208.11,1224.61 5208.11,1224.61"/>
    </edge>
    <edge id=":2471274511_0" function="internal">
        <lane id=":2471274511_0_0" index="0" speed="20.12" length="0.10" shape="5241.64,1230.10 5241.64,1230.10"/>
    </edge>
    <edge id=":2471274511_1" function="internal">
        <lane id=":2471274511_1_0" index="0" speed="20.12" length="0.10" shape="5240.14,1227.16 5240.14,1227.16"/>
    </edge>
    <edge id=":2471274513_0" function="internal">
        <lane id=":2471274513_0_0" index="0" speed="20.12" length="0.10" shape="5059.49,1295.36 5059.48,1295.36"/>
    </edge>
    <edge id=":2471274513_1" function="internal">
        <lane id=":2471274513_1_0" index="0" speed="20.12" length="0.10" shape="5060.82,1298.38 5060.82,1298.38"/>
    </edge>
    <edge id=":2471274514_0" function="internal">
        <lane id=":2471274514_0_0" index="0" speed="20.12" length="0.10" shape="5088.98,1305.49 5088.98,1305.49"/>
    </edge>
    <edge id=":2471274514_1" function="internal">
        <lane id=":2471274514_1_0" index="0" speed="20.12" length="0.10" shape="5087.54,1302.52 5087.54,1302.52"/>
    </edge>
    <edge id=":2471274731_0" function="internal">
        <lane id=":2471274731_0_0" index="0" speed="20.12" length="0.10" shape="4359.68,1623.35 4359.68,1623.35"/>
    </edge>
    <edge id=":2471274731_1" function="internal">
        <lane id=":2471274731_1_0" index="0" speed="20.12" length="0.10" shape="4361.13,1626.31 4361.13,1626.31"/>
    </edge>
    <edge id=":2471274732_0" function="internal">
        <lane id=":2471274732_0_0" index="0" speed="20.12" length="0.10" shape="4392.59,1627.82 4392.59,1627.82"/>
    </edge>
    <edge id=":2471274732_1" function="internal">
        <lane id=":2471274732_1_0" index="0" speed="20.12" length="0.10" shape="4391.16,1624.84 4391.16,1624.84"/>
    </edge>
    <edge id=":2471279591_0" function="internal">
        <lane id=":2471279591_0_0" index="0" speed="20.12" length="0.10" shape="3800.10,1909.64 3800.14,1909.63"/>
    </edge>
    <edge id=":2471279591_1" function="internal">
        <lane id=":2471279591_1_0" index="0" speed="20.12" length="0.10" shape="3798.93,1906.56 3798.91,1906.56"/>
    </edge>
    <edge id=":2471279593_0" function="internal">
        <lane id=":2471279593_0_0" index="0" speed="20.12" length="0.10" shape="3762.42,1906.47 3762.50,1906.43"/>
    </edge>
    <edge id=":2471279593_1" function="internal">
        <lane id=":2471279593_1_0" index="0" speed="20.12" length="0.10" shape="3763.86,1909.44 3763.77,1909.47"/>
    </edge>
    <edge id=":2471280796_0" function="internal">
        <lane id=":2471280796_0_0" index="0" speed="20.12" length="0.10" shape="3048.27,2308.77 3048.27,2308.77"/>
    </edge>
    <edge id=":2471280796_1" function="internal">
        <lane id=":2471280796_1_0" index="0" speed="20.12" length="0.15" shape="3046.36,2306.07 3046.24,2306.16"/>
    </edge>
    <edge id=":2514544651_0" function="internal">
        <lane id=":2514544651_0_0" index="0" speed="20.12" length="0.10" shape="6797.81,433.05 6797.82,433.05"/>
    </edge>
    <edge id=":2514544651_1" function="internal">
        <lane id=":2514544651_1_0" index="0" speed="20.12" length="0.10" shape="6799.21,436.04 6799.19,436.06"/>
    </edge>
    <edge id=":2514549386_0" function="internal">
        <lane id=":2514549386_0_0" index="0" speed="20.12" length="0.10" shape="6806.58,429.07 6806.58,429.07"/>
    </edge>
    <edge id=":2514549386_1" function="internal">
        <lane id=":2514549386_1_0" index="0" speed="20.12" length="0.10" shape="6807.95,432.07 6807.95,432.07"/>
    </edge>
    <edge id=":26028714_0" function="internal">
        <lane id=":26028714_0_0" index="0" speed="20.12" length="0.10" shape="6885.78,392.72 6885.79,392.72"/>
    </edge>
    <edge id=":26028714_1" function="internal">
        <lane id=":26028714_1_0" index="0" speed="20.12" length="0.10" shape="6887.14,395.73 6887.12,395.74"/>
    </edge>
    <edge id=":297693084_0" function="internal">
        <lane id=":297693084_0_0" index="0" speed="5.56" length="4.82" shape="5270.33,1238.24 5268.86,1237.99 5268.15,1237.40 5268.19,1236.48 5268.99,1235.23"/>
    </edge>
    <edge id=":338856120_0" function="internal">
        <lane id=":338856120_0_0" index="0" speed="27.78" length="24.46" shape="6952.63,371.23 6947.44,370.69 6940.45,370.28 6933.45,370.05 6928.22,370.05"/>
    </edge>
    <edge id=":338856120_1" function="internal">
        <lane id=":338856120_1_0" index="0" speed="23.95" length="8.15" shape="6952.63,371.23 6949.94,370.56 6948.97,369.69 6949.72,368.63 6952.19,367.36"/>
    </edge>
    <edge id=":338856120_2" function="internal">
        <lane id=":338856120_2_0" index="0" speed="20.12" length="23.81" shape="6929.04,373.67 6935.02,371.04 6939.95,368.90 6944.90,366.80 6950.94,364.31"/>
    </edge>
    <edge id=":338856120_3" function="internal">
        <lane id=":338856120_3_0" index="0" speed="23.95" length="19.59" shape="6930.37,376.69 6936.41,373.56 6938.06,371.41 6935.33,370.24 6928.22,370.05"/>
    </edge>
    <edge id=":344373030_0" function="internal">
        <lane id=":344373030_0_0" index="0" speed="27.78" length="11.02" shape="5516.17,1078.93 5514.91,1075.99 5514.75,1073.66 5514.55,1071.35 5513.18,1068.49"/>
    </edge>
    <edge id=":344373030_1" function="internal">
        <lane id=":344373030_1_0" index="0" speed="23.95" length="5.08" shape="5518.96,1077.17 5518.38,1075.88 5518.38,1074.75 5518.94,1073.76 5520.07,1072.92"/>
    </edge>
    <edge id=":344373030_2" function="internal">
        <lane id=":344373030_2_0" index="0" speed="23.95" length="5.22" shape="5509.34,1074.61 5510.57,1073.80 5511.16,1072.83 5511.13,1071.69 5510.47,1070.38"/>
    </edge>
    <edge id=":344373030_3" function="internal">
        <lane id=":344373030_3_0" index="0" speed="20.12" length="10.25" shape="5509.34,1074.61 5512.09,1073.32 5513.97,1072.42 5515.82,1071.46 5518.50,1070.02"/>
    </edge>
    <edge id=":344373030_4" function="internal">
        <lane id=":344373030_4_0" index="0" speed="20.12" length="10.45" shape="5510.73,1077.60 5513.54,1076.29 5515.45,1075.37 5517.34,1074.39 5520.07,1072.92"/>
    </edge>
    <edge id=":344373031_0" function="internal">
        <lane id=":344373031_0_0" index="0" speed="55.56" length="4.59" shape="5510.27,1033.12 5509.10,1033.86 5508.44,1034.72 5508.28,1035.69 5508.62,1036.78"/>
    </edge>
    <edge id=":344373031_1" function="internal">
        <lane id=":344373031_1_0" index="0" speed="83.33" length="9.65" shape="5510.27,1033.12 5501.63,1037.40"/>
    </edge>
    <edge id=":344373031_2" function="internal">
        <lane id=":344373031_2_0" index="0" speed="27.78" length="6.78" shape="5505.69,1031.51 5505.69,1038.29"/>
    </edge>
    <edge id=":344373031_3" function="internal">
        <lane id=":344373031_3_0" index="0" speed="55.56" length="5.08" shape="5502.85,1033.19 5503.39,1034.49 5503.36,1035.63 5502.78,1036.60 5501.63,1037.40"/>
    </edge>
    <edge id=":65434037_0" function="internal">
        <lane id=":65434037_0_0" index="0" speed="22.22" length="4.82" shape="5289.24,1119.41 5287.77,1119.21 5287.04,1118.65 5287.05,1117.73 5287.80,1116.44"/>
    </edge>
    <edge id=":65470359_0" function="internal">
        <lane id=":65470359_0_0" index="0" speed="23.95" length="5.30" shape="5524.21,1092.64 5523.42,1091.51 5522.41,1090.93 5521.19,1090.88 5519.74,1091.37"/>
    </edge>
    <edge id=":65470359_1" function="internal">
        <lane id=":65470359_1_0" index="0" speed="23.95" length="10.64" shape="5527.18,1091.21 5525.58,1088.86 5523.56,1087.62 5521.13,1087.46 5518.29,1088.40"/>
    </edge>
    <edge id=":65470359_2" function="internal">
        <lane id=":65470359_2_0" index="0" speed="27.78" length="10.59" shape="5527.18,1091.21 5525.41,1088.75 5523.53,1087.59 5521.54,1086.48 5519.49,1084.18"/>
    </edge>
    <edge id=":65470359_3" function="internal">
        <lane id=":65470359_3_0" index="0" speed="20.12" length="9.80" shape="5528.46,1086.90 5519.74,1091.37"/>
    </edge>
    <edge id=":65470359_4" function="internal">
        <lane id=":65470359_4_0" index="0" speed="20.12" length="9.67" shape="5526.89,1084.00 5518.29,1088.40"/>
    </edge>
    <edge id=":65470359_5" function="internal">
        <lane id=":65470359_5_0" index="0" speed="23.95" length="5.47" shape="5526.89,1084.00 5525.59,1084.44 5524.39,1084.33 5523.28,1083.66 5522.28,1082.42"/>
    </edge>
    <edge id=":65470361_0" function="internal">
        <lane id=":65470361_0_0" index="0" speed="16.67" length="5.01" shape="5483.21,1141.91 5482.58,1140.69 5481.71,1139.97 5480.61,1139.74 5479.26,1140.01"/>
    </edge>
    <edge id=":65470361_1" function="internal">
        <lane id=":65470361_1_0" index="0" speed="25.00" length="10.76" shape="5483.21,1141.91 5482.82,1138.74 5483.34,1136.25 5483.50,1134.03 5482.03,1131.66"/>
    </edge>
    <edge id=":65470361_2" function="internal">
        <lane id=":65470361_2_0" index="0" speed="16.67" length="11.94" shape="5486.33,1140.84 5486.22,1138.65 5487.50,1136.72 5490.16,1135.04 5494.20,1133.62"/>
    </edge>
    <edge id=":65470361_3" function="internal">
        <lane id=":65470361_3_0" index="0" speed="27.78" length="4.82" shape="5486.33,1140.84 5486.70,1139.40 5487.35,1138.74 5488.26,1138.86 5489.45,1139.76"/>
    </edge>
    <edge id=":65470361_4" function="internal">
        <lane id=":65470361_4_0" index="0" speed="13.89" length="8.12" shape="5478.16,1136.90 5480.96,1135.67 5482.54,1134.38 5482.90,1133.05 5482.03,1131.66"/>
    </edge>
    <edge id=":65470361_5" function="internal">
        <lane id=":65470361_5_0" index="0" speed="5.56" length="16.38" shape="5478.16,1136.90 5481.98,1135.87 5486.14,1135.13 5490.33,1134.45 5494.20,1133.62"/>
    </edge>
    <edge id=":65470361_6" function="internal">
        <lane id=":65470361_6_0" index="0" speed="16.67" length="16.06" shape="5478.16,1136.90 5483.67,1135.39 5487.91,1135.18 5490.87,1136.28 5492.57,1138.69"/>
    </edge>
    <edge id=":65470361_7" function="internal">
        <lane id=":65470361_7_0" index="0" speed="16.67" length="13.13" shape="5478.16,1136.90 5482.31,1135.86 5485.57,1136.00 5487.95,1137.30 5489.45,1139.76"/>
    </edge>
    <edge id=":65470361_8" function="internal">
        <lane id=":65470361_8_0" index="0" speed="5.56" length="4.81" shape="5478.16,1136.90 5479.60,1137.27 5480.26,1137.91 5480.15,1138.82 5479.26,1140.01"/>
    </edge>
    <edge id=":655130106_0" function="internal">
        <lane id=":655130106_0_0" index="0" speed="13.89" length="4.82" shape="6061.37,845.46 6062.52,846.40 6062.85,847.26 6062.36,848.04 6061.04,848.74"/>
    </edge>
    <edge id=":65524036_0" function="internal">
        <lane id=":65524036_0_0" index="0" speed="13.89" length="4.11" shape="5588.74,1075.98 5588.60,1074.94 5588.68,1073.93 5588.98,1072.98 5589.50,1072.06"/>
    </edge>
    <edge id=":65524036_1" function="internal">
        <lane id=":65524036_1_0" index="0" speed="13.89" length="2.41" shape="5588.74,1075.98 5589.26,1074.59 5589.98,1074.00"/>
    </edge>
    <edge id=":65524036_4" function="internal">
        <lane id=":65524036_4_0" index="0" speed="13.89" length="2.41" shape="5589.98,1074.00 5590.87,1074.22 5591.95,1075.24"/>
    </edge>
    <edge id=":65524036_2" function="internal">