<?xml version="1.0" encoding="UTF-8"?>

<!-- generated on Thu Nov 14 00:05:48 2013 by SUMO netconvert Version 0.17.1
<?xml version="1.0" encoding="UTF-8"?>

<configuration xmlns:xsi="http://www.w3.org/2001/XMLSchema-instance" xsi:noNamespaceSchemaLocation="http://sumo.sf.net/xsd/netconvertConfiguration.xsd">

    <input>
        <osm-files value="map.osm"/>
    </input>

    <output>
        <output-file value="caltrain.net.xml"/>
    </output>

    <projection>
        <proj.utm value="true"/>
    </projection>

    <tls_building>
        <tls.join value="true"/>
    </tls_building>

</configuration>
-->

<net version="0.13" xmlns:xsi="http://www.w3.org/2001/XMLSchema-instance" xsi:noNamespaceSchemaLocation="http://sumo.sf.net/xsd/net_file.xsd">

    <location netOffset="-579986.54,-4137465.69" convBoundary="0.00,0.00,2079.21,1401.37" origBoundary="-122.096370,37.380309,-122.073038,37.393121" projParameter="+proj=utm +zone=10 +ellps=WGS84 +datum=WGS84 +units=m +no_defs"/>

    <edge id=":1722505392_0" function="internal">
        <lane id=":1722505392_0_0" index="0" speed="15.65" length="0.10" shape="1645.47,255.80 1645.47,255.80"/>
    </edge>
    <edge id=":1722505392_1" function="internal">
        <lane id=":1722505392_1_0" index="0" speed="15.65" length="0.10" shape="1647.15,258.64 1647.15,258.64"/>
    </edge>
    <edge id=":1722505392_2" function="internal">
        <lane id=":1722505392_2_0" index="0" speed="15.65" length="0.10" shape="1648.84,261.48 1648.84,261.48"/>
    </edge>
    <edge id=":222073951_0" function="internal">
        <lane id=":222073951_0_0" index="0" speed="15.65" length="0.10" shape="737.53,836.87 737.49,836.89"/>
    </edge>
    <edge id=":222073951_1" function="internal">
        <lane id=":222073951_1_0" index="0" speed="15.65" length="0.10" shape="735.81,834.05 735.81,834.05"/>
    </edge>
    <edge id=":222073951_2" function="internal">
        <lane id=":222073951_2_0" index="0" speed="15.65" length="0.10" shape="734.09,831.24 734.14,831.21"/>
    </edge>
    <edge id=":2519019110_0" function="internal">
        <lane id=":2519019110_0_0" index="0" speed="13.41" length="0.10" shape="854.57,67.15 854.56,67.15"/>
    </edge>
    <edge id=":2519019110_1" function="internal">
        <lane id=":2519019110_1_0" index="0" speed="13.41" length="0.10" shape="855.81,64.10 855.82,64.10"/>
    </edge>
    <edge id=":26031465_0" function="internal">
        <lane id=":26031465_0_0" index="0" speed="15.65" length="0.10" shape="716.03,819.76 716.11,819.72"/>
    </edge>
    <edge id=":26031465_1" function="internal">
        <lane id=":26031465_1_0" index="0" speed="15.65" length="0.29" shape="717.51,822.71 717.76,822.57"/>
    </edge>
    <edge id=":26031465_2" function="internal">
        <lane id=":26031465_2_0" index="0" speed="15.65" length="0.48" shape="719.00,825.66 719.42,825.43"/>
    </edge>
    <edge id=":26031466_0" function="internal">
        <lane id=":26031466_0_0" index="0" speed="15.65" length="0.10" shape="728.65,812.47 728.58,812.51"/>
    </edge>
    <edge id=":26031466_1" function="internal">
        <lane id=":26031466_1_0" index="0" speed="15.65" length="0.10" shape="730.30,815.32 730.30,815.32"/>
    </edge>
    <edge id=":26031466_2" function="internal">
        <lane id=":26031466_2_0" index="0" speed="15.65" length="0.10" shape="732.01,818.15 732.01,818.15"/>
    </edge>
    <edge id=":314513157_0" function="internal">
        <lane id=":314513157_0_0" index="0" speed="13.41" length="13.79" shape="1106.57,593.59 1104.77,590.03 1104.34,587.22 1104.04,584.33 1102.67,580.51"/>
    </edge>
    <edge id=":314513157_1" function="internal">
        <lane id=":314513157_1_0" index="0" speed="14.53" length="3.18" shape="1109.30,591.72 1107.81,589.34 1107.66,589.00"/>
    </edge>
    <edge id=":314513157_7" function="internal">
        <lane id=":314513157_7_0" index="0" speed="14.53" length="3.96" shape="1107.66,589.00 1106.98,587.48 1106.82,586.14 1107.31,585.33"/>
    </edge>
    <edge id=":314513157_2" function="internal">
        <lane id=":314513157_2_0" index="0" speed="14.53" length="4.11" shape="1109.30,591.72 1108.62,590.53 1108.38,589.52 1108.55,588.70 1109.15,588.07"/>
    </edge>
    <edge id=":314513157_3" function="internal">
        <lane id=":314513157_3_0" index="0" speed="14.53" length="5.44" shape="1098.78,586.76 1099.81,585.89 1100.31,584.81 1100.29,583.52 1099.73,582.01"/>
    </edge>
    <edge id=":314513157_4" function="internal">
        <lane id=":314513157_4_0" index="0" speed="15.65" length="7.89" shape="1098.78,586.76 1105.47,582.59"/>
    </edge>
    <edge id=":314513157_5" function="internal">
        <lane id=":314513157_5_0" index="0" speed="15.65" length="8.08" shape="1100.45,589.61 1107.31,585.33"/>
    </edge>
    <edge id=":314513157_6" function="internal">
        <lane id=":314513157_6_0" index="0" speed="15.65" length="8.28" shape="1102.13,592.45 1109.15,588.07"/>
    </edge>
    <edge id=":33260881_0" function="internal">
        <lane id=":33260881_0_0" index="0" speed="15.65" length="0.10" shape="2069.73,1.74 2069.73,1.74"/>
    </edge>
    <edge id=":33260881_1" function="internal">
        <lane id=":33260881_1_0" index="0" speed="15.65" length="0.10" shape="2071.40,4.58 2071.40,4.58"/>
    </edge>
    <edge id=":33260881_2" function="internal">
        <lane id=":33260881_2_0" index="0" speed="15.65" length="0.10" shape="2073.09,7.42 2073.07,7.43"/>
    </edge>
    <edge id=":343603930_0" function="internal">
        <lane id=":343603930_0_0" index="0" speed="27.78" length="4.82" shape="1294.94,977.56 1294.74,979.03 1294.17,979.76 1293.25,979.75 1291.97,978.99"/>
    </edge>
    <edge id=":448801431_0" function="internal">
        <lane id=":448801431_0_0" index="0" speed="15.65" length="0.10" shape="725.81,843.80 725.81,843.80"/>
    </edge>
    <edge id=":448801431_1" function="internal">
        <lane id=":448801431_1_0" index="0" speed="15.65" length="0.10" shape="724.18,840.93 724.18,840.93"/>
    </edge>
    <edge id=":448801431_2" function="internal">
        <lane id=":448801431_2_0" index="0" speed="15.65" length="0.28" shape="722.68,837.98 722.44,838.11"/>
    </edge>
    <edge id=":65658312_0" function="internal">
        <lane id=":65658312_0_0" index="0" speed="21.71" length="5.17" shape="1114.23,612.96 1113.48,611.73 1112.53,611.09 1111.39,611.05 1110.06,611.62"/>
    </edge>
    <edge id=":65658312_1" function="internal">
        <lane id=":65658312_1_0" index="0" speed="21.71" length="11.05" shape="1117.26,611.67 1115.66,609.03 1113.63,607.67 1111.20,607.59 1108.35,608.79"/>
    </edge>
    <edge id=":65658312_2" function="internal">
        <lane id=":65658312_2_0" index="0" speed="20.59" length="20.82" shape="1117.26,611.67 1114.75,606.15 1112.63,602.37 1110.19,598.77 1106.71,593.79"/>
    </edge>
    <edge id=":65658312_3" function="internal">
        <lane id=":65658312_3_0" index="0" speed="27.78" length="2.41" shape="1117.26,611.67 1117.54,610.20 1118.13,609.50"/>
    </edge>
    <edge id=":65658312_12" function="internal">
        <lane id=":65658312_12_0" index="0" speed="27.78" length="2.41" shape="1118.13,609.50 1119.05,609.56 1120.30,610.37"/>
    </edge>
    <edge id=":65658312_4" function="internal">
        <lane id=":65658312_4_0" index="0" speed="21.71" length="6.79" shape="1124.16,602.93 1123.09,603.96 1122.59,605.32 1122.67,607.03 1123.33,609.07"/>
    </edge>
    <edge id=":65658312_5" function="internal">
        <lane id=":65658312_5_0" index="0" speed="15.65" length="16.57" shape="1124.16,602.93 1120.00,605.55 1117.14,607.33 1114.27,609.08 1110.06,611.62"/>
    </edge>
    <edge id=":65658312_6" function="internal">
        <lane id=":65658312_6_0" index="0" speed="15.65" length="16.50" shape="1122.40,600.14 1118.25,602.75 1115.41,604.52 1112.55,606.26 1108.35,608.79"/>
    </edge>
    <edge id=":65658312_7" function="internal">
        <lane id=":65658312_7_0" index="0" speed="15.65" length="16.43" shape="1120.63,597.35 1116.51,599.95 1113.68,601.71 1110.83,603.45 1106.65,605.96"/>
    </edge>
    <edge id=":65658312_8" function="internal">
        <lane id=":65658312_8_0" index="0" speed="14.53" length="13.83" shape="1120.63,597.35 1117.98,598.24 1115.22,597.64 1112.38,595.53 1109.43,591.92"/>
    </edge>
    <edge id=":65658312_9" function="internal">
        <lane id=":65658312_9_0" index="0" speed="20.59" length="20.57" shape="1116.35,590.34 1116.78,596.38 1117.17,600.64 1118.14,604.76 1120.30,610.37"/>
    </edge>
    <edge id=":65658312_10" function="internal">
        <lane id=":65658312_10_0" index="0" speed="14.53" length="5.34" shape="1113.07,590.62 1113.02,595.67 1112.94,595.95"/>
    </edge>
    <edge id=":65658312_13" function="internal">
        <lane id=":65658312_13_0" index="0" speed="14.53" length="12.23" shape="1112.94,595.95 1111.93,599.91 1109.81,603.34 1106.65,605.96"/>
    </edge>
    <edge id=":65658312_11" function="internal">
        <lane id=":65658312_11_0" index="0" speed="13.41" length="8.47" shape="1113.07,590.62 1113.08,593.53 1112.48,594.72 1111.26,594.18 1109.43,591.92"/>
    </edge>
    <edge id=":790843397_0" function="internal">
        <lane id=":790843397_0_0" index="0" speed="14.53" length="5.13" shape="1111.53,574.68 1112.51,575.75 1113.57,576.28 1114.72,576.29 1115.96,575.77"/>
    </edge>
    <edge id=":790843397_1" function="internal">
        <lane id=":790843397_1_0" index="0" speed="14.53" length="10.22" shape="1108.84,576.56 1110.76,578.65 1112.88,579.68 1115.19,579.65 1117.69,578.57"/>
    </edge>
    <edge id=":790843397_2" function="internal">
        <lane id=":790843397_2_0" index="0" speed="13.41" length="15.43" shape="1108.84,576.56 1111.73,580.15 1113.94,582.60 1115.46,585.30 1116.29,589.64"/>
    </edge>
    <edge id=":790843397_3" function="internal">
        <lane id=":790843397_3_0" index="0" speed="15.65" length="12.31" shape="1105.64,582.48 1108.67,580.44 1110.75,579.05 1112.86,577.70 1115.96,575.77"/>
    </edge>
    <edge id=":790843397_4" function="internal">
        <lane id=":790843397_4_0" index="0" speed="15.65" length="12.19" shape="1107.48,585.22 1110.48,583.20 1112.54,581.82 1114.62,580.49 1117.69,578.57"/>
    </edge>
    <edge id=":790843397_5" function="internal">
        <lane id=":790843397_5_0" index="0" speed="15.65" length="12.06" shape="1109.31,587.96 1112.29,585.96 1114.32,584.60 1116.38,583.27 1119.42,581.38"/>
    </edge>
    <edge id=":790843397_6" function="internal">
        <lane id=":790843397_6_0" index="0" speed="14.53" length="5.65" shape="1109.31,587.96 1110.79,587.24 1111.90,587.33 1112.64,588.23 1113.01,589.92"/>
    </edge>

    <edge id="-30860760" from="343603930" to="65658312" priority="7" type="highway.secondary" shape="1293.45,978.27 1292.04,975.34 1285.73,962.22 1278.82,947.83 1275.51,940.96 1253.63,895.45 1247.45,882.58 1242.42,872.18 1218.19,822.06 1208.46,801.93 1206.48,797.84 1187.74,759.04 1182.45,748.69 1177.37,738.73 1170.56,725.46 1163.03,710.80 1142.91,667.45 1118.83,611.14 1115.89,604.25">
        <lane id="-30860760_0" index="0" speed="27.78" length="406.91" shape="1289.00,980.42 1287.58,977.49 1281.27,964.37 1274.35,949.97 1271.05,943.11 1249.17,897.59 1242.98,884.73 1237.96,874.33 1213.73,824.22 1204.00,804.08 1202.03,799.99 1183.28,761.20 1178.04,750.94 1172.96,740.97 1166.15,727.72 1158.63,713.06 1138.42,669.53 1114.28,613.08 1114.23,612.96"/>
        <lane id="-30860760_1" index="1" speed="27.78" length="406.91" shape="1291.97,978.99 1290.55,976.06 1284.24,962.94 1277.33,948.54 1274.02,941.68 1252.15,896.16 1245.96,883.30 1240.93,872.90 1216.70,822.78 1206.97,802.65 1205.00,798.55 1186.25,759.76 1180.98,749.44 1175.90,739.47 1169.09,726.21 1161.57,711.56 1141.42,668.14 1117.31,611.78 1117.26,611.67"/>
    </edge>
    <edge id="158469647#0" from="65658312" to="314513157" priority="7" type="highway.secondary" spreadType="center">
        <lane id="158469647#0_0" index="0" speed="13.41" length="0.24" shape="1106.71,593.79 1106.57,593.59"/>
        <lane id="158469647#0_1" index="1" speed="13.41" length="0.24" shape="1109.43,591.92 1109.30,591.72"/>
    </edge>
    <edge id="158469647#1" from="314513157" to="2519019110" priority="7" type="highway.secondary" spreadType="center" shape="1104.29,587.35 1099.21,577.34 1085.53,550.40 1051.83,480.34 1016.88,406.69 1012.61,398.68 987.53,345.72 982.15,334.74 921.48,211.84 915.84,198.57 913.27,189.74 910.70,180.69 908.03,169.73 907.04,148.58 906.83,125.25 903.73,112.46 897.22,99.42 891.04,88.88 880.50,78.18 867.43,70.61 855.19,65.62">
        <lane id="158469647#1_0" index="0" speed="13.41" length="582.93" shape="1099.73,582.01 1097.74,578.08 1084.06,551.14 1050.34,481.05 1015.39,407.40 1011.16,399.46 986.04,346.43 980.66,335.47 920.00,212.57 914.32,199.21 911.68,190.21 909.11,181.14 906.39,169.97 905.39,148.65 905.18,125.46 902.17,113.03 895.75,100.15 889.72,89.89 879.48,79.50 866.61,72.04 854.57,67.15"/>
        <lane id="158469647#1_1" index="1" speed="13.41" length="582.93" shape="1102.67,580.51 1100.68,576.59 1087.00,549.65 1053.32,479.62 1018.37,405.98 1014.07,397.90 989.02,345.02 983.63,334.02 922.96,211.11 917.36,197.92 914.85,189.28 912.29,180.24 909.68,169.50 908.68,148.50 908.48,125.05 905.29,111.89 898.70,98.68 892.36,87.87 881.52,76.87 868.26,69.19 855.81,64.10"/>
    </edge>
    <edge id="158469647#2" from="2519019110" to="2482611836" priority="7" type="highway.secondary" spreadType="center" shape="855.19,65.62 853.48,64.92 846.52,62.10 835.04,61.48">
        <lane id="158469647#2_0" index="0" speed="13.41" length="20.85" shape="854.56,67.15 852.85,66.44 846.16,63.73 834.96,63.13"/>
        <lane id="158469647#2_1" index="1" speed="13.41" length="20.85" shape="855.82,64.10 854.11,63.39 846.89,60.47 835.13,59.83"/>
    </edge>
    <edge id="240533000#0" from="2482611833" to="790843397" priority="7" type="highway.secondary" spreadType="center" shape="835.10,53.83 846.38,54.39 854.65,55.99 869.48,61.59 889.85,74.03 902.51,87.09 911.03,103.13 915.87,116.17 918.05,125.19 919.22,135.21 918.78,149.32 919.49,167.55 920.78,177.22 923.50,186.56 930.00,204.00 957.51,261.68 990.13,329.38 1020.42,392.58 1024.68,401.13 1060.05,475.22 1107.67,572.03 1113.89,580.92">
        <lane id="240533000#0_0" index="0" speed="13.41" length="612.59" shape="835.18,52.19 846.46,52.74 854.96,54.37 870.20,60.10 890.88,72.73 903.86,86.10 912.49,102.36 917.41,115.60 919.66,124.80 920.86,135.02 920.43,149.37 921.14,167.48 922.42,177.01 925.08,186.10 931.54,203.42 959.00,260.97 991.62,328.67 1021.91,391.86 1026.16,400.39 1061.54,474.51 1109.16,571.30 1111.53,574.68"/>
        <lane id="240533000#0_1" index="1" speed="13.41" length="612.59" shape="835.02,55.48 846.29,56.04 854.33,57.61 868.75,63.08 888.81,75.32 901.17,88.07 909.58,103.91 914.32,116.75 916.45,125.58 917.59,135.40 917.13,149.27 917.84,167.61 919.15,177.44 921.91,187.02 928.45,204.57 956.03,262.39 988.64,330.10 1018.93,393.29 1023.21,401.86 1058.56,475.93 1106.19,572.75 1108.84,576.56"/>
    </edge>
    <edge id="240533000#1" from="790843397" to="65658312" priority="7" type="highway.secondary" spreadType="center">
        <lane id="240533000#1_0" index="0" speed="13.41" length="0.70" shape="1116.29,589.64 1116.35,590.34"/>
        <lane id="240533000#1_1" index="1" speed="13.41" length="0.70" shape="1113.01,589.92 1113.07,590.62"/>
    </edge>
    <edge id="30860760" from="65658312" to="343603930" priority="7" type="highway.secondary" shape="1115.89,604.25 1118.83,611.14 1142.91,667.45 1163.03,710.80 1170.56,725.46 1177.37,738.73 1182.45,748.69 1187.74,759.04 1206.48,797.84 1208.46,801.93 1218.19,822.06 1242.42,872.18 1247.45,882.58 1253.63,895.45 1275.51,940.96 1278.82,947.83 1285.73,962.22 1292.04,975.34 1293.45,978.27">
        <lane id="30860760_0" index="0" speed="27.78" length="406.61" shape="1123.33,609.07 1123.38,609.19 1147.47,665.50 1167.52,708.72 1174.96,723.19 1181.77,736.46 1186.86,746.45 1192.14,756.79 1210.94,795.68 1212.92,799.77 1222.65,819.91 1246.88,870.03 1251.90,880.43 1258.09,893.30 1279.97,938.82 1283.28,945.68 1290.19,960.08 1296.50,973.20 1297.91,976.12"/>
        <lane id="30860760_1" index="1" speed="27.78" length="406.61" shape="1120.30,610.37 1120.35,610.49 1144.43,666.80 1164.53,710.11 1172.03,724.70 1178.84,737.97 1183.92,747.94 1189.20,758.29 1207.97,797.12 1209.95,801.21 1219.67,821.34 1243.91,871.46 1248.93,881.86 1255.12,894.73 1277.00,940.25 1280.30,947.11 1287.22,961.51 1293.53,974.63 1294.94,977.56"/>
    </edge>
    <edge id="5018670#0" from="26050456" to="26031465" priority="9" type="highway.primary" spreadType="center" shape="88.58,1265.41 95.70,1255.27 105.32,1241.91 115.27,1228.89 130.24,1210.91 144.84,1195.27 162.65,1177.91 177.02,1164.88 181.99,1160.56 195.42,1149.30 211.95,1135.79 229.75,1122.49 249.15,1109.05 267.68,1097.02 289.34,1083.69 340.61,1052.66 378.25,1029.73 394.47,1019.77 536.46,933.97 560.68,918.64 584.83,903.08 628.99,874.68 650.64,861.23 697.54,832.76 717.64,822.65">
        <lane id="5018670#0_0" index="0" speed="15.65" length="774.65" shape="85.88,1263.52 93.00,1253.38 102.64,1239.98 112.65,1226.88 127.70,1208.80 142.43,1193.02 160.35,1175.55 174.81,1162.44 179.83,1158.07 193.30,1146.77 209.86,1133.24 227.78,1119.85 247.27,1106.34 265.88,1094.25 287.61,1080.88 338.90,1049.84 376.53,1026.91 392.74,1016.96 534.75,931.15 558.91,915.85 583.04,900.31 627.20,871.91 648.90,858.43 695.82,829.94 716.03,819.76"/>
        <lane id="5018670#0_1" index="1" speed="15.65" length="774.65" shape="88.58,1265.41 95.70,1255.27 105.32,1241.91 115.27,1228.89 130.24,1210.91 144.84,1195.27 162.65,1177.91 177.02,1164.88 181.99,1160.56 195.42,1149.30 211.95,1135.79 229.75,1122.49 249.15,1109.05 267.68,1097.02 289.34,1083.69 340.61,1052.66 378.25,1029.73 394.47,1019.77 536.46,933.97 560.68,918.64 584.83,903.08 628.99,874.68 650.64,861.23 697.54,832.76 717.51,822.71"/>
        <lane id="5018670#0_2" index="2" speed="15.65" length="774.65" shape="91.28,1267.31 98.40,1257.17 108.00,1243.83 117.89,1230.89 132.77,1213.02 147.25,1197.53 164.96,1180.28 179.24,1167.33 184.16,1163.05 197.54,1151.83 214.04,1138.35 231.73,1125.14 251.03,1111.77 269.48,1099.78 291.07,1086.50 342.32,1055.48 379.97,1032.55 396.19,1022.58 538.16,936.80 562.44,921.43 586.61,905.86 630.77,877.46 652.38,864.04 699.25,835.58 719.00,825.66"/>
    </edge>
    <edge id="5018670#1" from="26031465" to="26031466" priority="9" type="highway.primary" spreadType="center">
        <lane id="5018670#1_0" index="0" speed="15.65" length="14.51" shape="716.11,819.72 728.65,812.47"/>
        <lane id="5018670#1_1" index="1" speed="15.65" length="14.51" shape="717.76,822.57 730.30,815.32"/>
        <lane id="5018670#1_2" index="2" speed="15.65" length="14.51" shape="719.42,825.43 732.01,818.15"/>
    </edge>
    <edge id="5018670#2" from="26031466" to="314513157" priority="9" type="highway.primary" spreadType="center" shape="730.30,815.32 761.06,796.49 831.56,753.36 1067.96,608.71 1093.98,593.41 1104.29,587.35">
        <lane id="5018670#2_0" index="0" speed="15.65" length="433.55" shape="728.58,812.51 759.34,793.68 829.83,750.54 1066.23,605.90 1092.31,590.56 1098.78,586.76"/>
        <lane id="5018670#2_1" index="1" speed="15.65" length="433.55" shape="730.30,815.32 761.06,796.49 831.56,753.36 1067.96,608.71 1093.98,593.41 1100.45,589.61"/>
        <lane id="5018670#2_2" index="2" speed="15.65" length="433.55" shape="732.01,818.15 762.79,799.31 833.28,756.17 1069.68,611.53 1095.66,596.25 1102.13,592.45"/>
    </edge>
    <edge id="5018670#3" from="314513157" to="790843397" priority="9" type="highway.primary" spreadType="center">
        <lane id="5018670#3_0" index="0" speed="15.65" length="0.20" shape="1105.47,582.59 1105.64,582.48"/>
        <lane id="5018670#3_1" index="1" speed="15.65" length="0.20" shape="1107.31,585.33 1107.48,585.22"/>
        <lane id="5018670#3_2" index="2" speed="15.65" length="0.20" shape="1109.15,588.07 1109.31,587.96"/>
    </edge>
    <edge id="5018670#4" from="790843397" to="1722505392" priority="9" type="highway.primary" spreadType="center" shape="1113.89,580.92 1119.91,577.20 1269.03,485.16 1348.17,438.38 1355.69,433.77 1431.09,386.86 1647.15,258.64">
        <lane id="5018670#4_0" index="0" speed="15.65" length="618.64" shape="1115.96,575.77 1118.18,574.40 1267.29,482.36 1346.49,435.54 1353.97,430.96 1429.34,384.06 1645.47,255.80"/>
        <lane id="5018670#4_1" index="1" speed="15.65" length="618.64" shape="1117.69,578.57 1119.91,577.20 1269.03,485.16 1348.17,438.38 1355.69,433.77 1431.09,386.86 1647.15,258.64"/>
        <lane id="5018670#4_2" index="2" speed="15.65" length="618.64" shape="1119.42,581.38 1121.65,580.01 1270.76,487.97 1349.84,441.22 1357.42,436.58 1432.83,389.66 1648.84,261.48"/>
    </edge>
    <edge id="5018670#5" from="1722505392" to="33260881" priority="9" type="highway.primary" spreadType="center" shape="1647.15,258.64 1656.00,253.39 1668.93,245.12 1707.97,221.91 1835.97,145.17 1858.91,131.20 1878.07,119.64 1926.15,91.25 1942.94,81.41 1972.05,64.00 1993.30,51.29 2026.26,31.58 2047.05,19.16 2071.40,4.58">
        <lane id="5018670#5_0" index="0" speed="15.65" length="494.52" shape="1645.47,255.80 1654.32,250.55 1667.15,242.34 1706.29,219.07 1834.27,142.34 1857.20,128.38 1876.37,116.82 1924.47,88.40 1941.27,78.57 1970.35,61.17 1991.61,48.46 2024.56,28.75 2045.35,16.32 2069.73,1.74"/>
        <lane id="5018670#5_1" index="1" speed="15.65" length="494.52" shape="1647.15,258.64 1656.00,253.39 1668.93,245.12 1707.97,221.91 1835.97,145.17 1858.91,131.20 1878.07,119.64 1926.15,91.25 1942.94,81.41 1972.05,64.00 1993.30,51.29 2026.26,31.58 2047.05,19.16 2071.40,4.58"/>
        <lane id="5018670#5_2" index="2" speed="15.65" length="494.52" shape="1648.84,261.48 1657.69,256.23 1670.71,247.90 1709.66,224.75 1837.66,148.00 1860.63,134.01 1879.77,122.47 1927.83,94.09 1944.61,84.26 1973.74,66.83 1995.00,54.13 2027.95,34.41 2048.74,21.99 2073.09,7.42"/>
    </edge>
    <edge id="5018670#6" from="33260881" to="790843396" priority="9" type="highway.primary" spreadType="center">
        <lane id="5018670#6_0" index="0" speed="15.65" length="9.06" shape="2069.73,1.74 2077.54,-2.85"/>
        <lane id="5018670#6_1" index="1" speed="15.65" length="9.06" shape="2071.40,4.58 2079.21,0.00"/>
        <lane id="5018670#6_2" index="2" speed="15.65" length="9.06" shape="2073.07,7.43 2080.88,2.85"/>
    </edge>
    <edge id="8966516#0" from="65468610" to="65658312" priority="9" type="highway.primary" spreadType="center" shape="1260.64,514.71 1193.15,555.44 1127.42,596.96 1115.89,604.25">
        <lane id="8966516#0_0" index="0" speed="15.65" length="162.52" shape="1262.34,517.53 1194.85,558.26 1129.19,599.75 1124.16,602.93"/>
        <lane id="8966516#0_1" index="1" speed="15.65" length="162.52" shape="1260.64,514.71 1193.15,555.44 1127.42,596.96 1122.40,600.14"/>
        <lane id="8966516#0_2" index="2" speed="15.65" length="162.52" shape="1258.93,511.88 1191.44,552.61 1125.66,594.17 1120.63,597.35"/>
    </edge>
    <edge id="8966516#1" from="65658312" to="222073951" priority="9" type="highway.primary" spreadType="center" shape="1115.89,604.25 1103.75,611.57 833.56,774.44 735.81,834.05">
        <lane id="8966516#1_0" index="0" speed="15.65" length="435.35" shape="1110.06,611.62 1105.45,614.39 835.26,777.26 737.53,836.87"/>
        <lane id="8966516#1_1" index="1" speed="15.65" length="435.35" shape="1108.35,608.79 1103.75,611.57 833.56,774.44 735.81,834.05"/>
        <lane id="8966516#1_2" index="2" speed="15.65" length="435.35" shape="1106.65,605.96 1102.05,608.74 831.85,771.61 734.09,831.24"/>
    </edge>
    <edge id="8966516#2" from="222073951" to="448801431" priority="9" type="highway.primary" spreadType="center">
        <lane id="8966516#2_0" index="0" speed="15.65" length="13.46" shape="737.49,836.89 725.81,843.80"/>
        <lane id="8966516#2_1" index="1" speed="15.65" length="13.46" shape="735.81,834.05 724.18,840.93"/>
        <lane id="8966516#2_2" index="2" speed="15.65" length="13.46" shape="734.14,831.21 722.68,837.98"/>
    </edge>
    <edge id="8966516#3" from="448801431" to="65658516" priority="9" type="highway.primary" spreadType="center" shape="724.18,840.93 691.81,858.00 639.08,889.76 544.12,947.67 450.22,1004.38 440.74,1010.24 396.69,1037.10 345.33,1068.25 276.35,1110.38 257.27,1122.94 239.26,1135.73 221.82,1149.70 205.40,1163.68 189.70,1177.83 173.95,1193.05 158.61,1208.23 144.00,1224.31 129.40,1241.55 119.53,1253.92 109.96,1265.94 102.29,1275.65 42.54,1351.89 27.19,1370.63 11.35,1389.19 0.00,1401.37">
        <lane id="8966516#3_0" index="0" speed="15.65" length="926.15" shape="725.81,843.80 693.35,860.92 640.78,892.58 545.84,950.49 451.93,1007.21 442.47,1013.05 398.41,1039.92 347.05,1071.07 278.07,1113.20 259.08,1125.69 241.17,1138.42 223.89,1152.28 207.54,1166.19 191.91,1180.28 176.25,1195.42 160.93,1210.58 146.44,1226.53 131.92,1243.68 122.11,1255.97 112.54,1267.99 104.89,1277.70 45.14,1353.93 29.74,1372.72 13.86,1391.33 2.41,1403.62"/>
        <lane id="8966516#3_1" index="1" speed="15.65" length="926.15" shape="724.18,840.93 691.81,858.00 639.08,889.76 544.12,947.67 450.22,1004.38 440.74,1010.24 396.69,1037.10 345.33,1068.25 276.35,1110.38 257.27,1122.94 239.26,1135.73 221.82,1149.70 205.40,1163.68 189.70,1177.83 173.95,1193.05 158.61,1208.23 144.00,1224.31 129.40,1241.55 119.53,1253.92 109.96,1265.94 102.29,1275.65 42.54,1351.89 27.19,1370.63 11.35,1389.19 0.00,1401.37"/>
        <lane id="8966516#3_2" index="2" speed="15.65" length="926.15" shape="722.44,838.11 690.27,855.08 637.37,886.93 542.41,944.85 448.52,1001.56 439.00,1007.43 394.97,1034.28 343.62,1065.43 274.63,1107.57 255.46,1120.18 237.34,1133.04 219.76,1147.13 203.26,1161.17 187.49,1175.38 171.66,1190.67 156.29,1205.89 141.55,1222.10 126.88,1239.42 116.95,1251.86 107.37,1263.88 99.70,1273.61 39.94,1349.86 24.64,1368.54 8.84,1387.04 -2.42,1399.12"/>
    </edge>

    <tlLogic id="1722505392" type="static" programID="0" offset="0">
        <phase duration="31" state="GGG"/>
        <phase duration="5" state="yyy"/>
    </tlLogic>
    <tlLogic id="2519019110" type="static" programID="0" offset="0">
        <phase duration="31" state="GG"/>
        <phase duration="4" state="yy"/>
    </tlLogic>
    <tlLogic id="33260881" type="static" programID="0" offset="0">
        <phase duration="31" state="GGG"/>
        <phase duration="5" state="yyy"/>
    </tlLogic>
    <tlLogic id="joinedS_0" type="static" programID="0" offset="0">
        <phase duration="31" state="GGG"/>
        <phase duration="5" state="yyy"/>
    </tlLogic>
    <tlLogic id="joinedS_1" type="static" programID="0" offset="0">
        <phase duration="31" state="GGG"/>
        <phase duration="5" state="yyy"/>
    </tlLogic>
    <tlLogic id="joinedS_2" type="static" programID="0" offset="0">
        <phase duration="31" state="GgggrrrrGGGGgrrr"/>
        <phase duration="9" state="ygggrrrryyyygrrr"/>
        <phase duration="6" state="rGGGrrrrrrrrGrrr"/>
        <phase duration="9" state="ryyyrrrrrrrryrrr"/>
        <phase duration="31" state="GrrrggggrrrrrGGg"/>
        <phase duration="9" state="yrrrggggrrrrryyg"/>
        <phase duration="6" state="rrrrGGGGrrrrrrrG"/>
        <phase duration="9" state="rrrryyyyrrrrrrry"/>
    </tlLogic>

    <junction id="1722505392" type="traffic_light" x="1647.15" y="258.64" incLanes="5018670#4_0 5018670#4_1 5018670#4_2" intLanes=":1722505392_0_0 :1722505392_1_0 :1722505392_2_0" shape="1649.65,262.86 1644.65,254.43 1649.65,262.86">
        <request index="0" response="000" foes="000" cont="0"/>
        <request index="1" response="000" foes="000" cont="0"/>
        <request index="2" response="000" foes="000" cont="0"/>
    </junction>
    <junction id="222073951" type="traffic_light" x="735.81" y="834.05" incLanes="8966516#1_0 8966516#1_1 8966516#1_2" intLanes=":222073951_0_0 :222073951_1_0 :222073951_2_0" shape="738.36,838.24 733.26,829.87 738.31,838.27">
        <request index="0" response="000" foes="000" cont="0"/>
        <request index="1" response="000" foes="000" cont="0"/>
        <request index="2" response="000" foes="000" cont="0"/>
    </junction>
    <junction id="2482611833" type="unregulated" x="835.10" y="53.83" incLanes="" intLanes="" shape="834.94,57.08 835.26,50.59"/>
    <junction id="2482611836" type="unregulated" x="835.04" y="61.48" incLanes="158469647#2_0 158469647#2_1" intLanes="" shape="834.87,64.72 835.22,58.23"/>
    <junction id="2519019110" type="traffic_light" x="855.19" y="65.62" incLanes="158469647#1_0 158469647#1_1" intLanes=":2519019110_0_0 :2519019110_1_0" shape="853.97,68.63 856.42,62.62 853.96,68.63">
        <request index="0" response="00" foes="00" cont="0"/>
        <request index="1" response="00" foes="00" cont="0"/>
    </junction>
    <junction id="26031465" type="traffic_light" x="717.64" y="822.65" incLanes="5018670#0_0 5018670#0_1 5018670#0_2" intLanes=":26031465_0_0 :26031465_1_0 :26031465_2_0" shape="720.22,826.82 715.31,818.33 719.72,827.09">
        <request index="0" response="000" foes="000" cont="0"/>
        <request index="1" response="000" foes="000" cont="0"/>
        <request index="2" response="000" foes="000" cont="0"/>
    </junction>
    <junction id="26031466" type="traffic_light" x="730.30" y="815.32" incLanes="5018670#1_0 5018670#1_1 5018670#1_2" intLanes=":26031466_0_0 :26031466_1_0 :26031466_2_0" shape="732.85,819.51 727.73,811.15 727.86,811.07 732.77,819.56">
        <request index="0" response="000" foes="000" cont="0"/>
        <request index="1" response="000" foes="000" cont="0"/>
        <request index="2" response="000" foes="000" cont="0"/>
    </junction>
    <junction id="26050456" type="unregulated" x="88.58" y="1265.41" incLanes="" intLanes="" shape="92.59,1268.23 84.57,1262.60"/>